   Input file: C:\Users\anand\Downloads\CE520Project\PHREEQ-C\PHREEQC_ALL_POINTS.pqi
  Output file: C:\Users\anand\Downloads\CE520Project\PHREEQ-C\PHREEQC_ALL_POINTS.pqo
Database file: C:\Program Files (x86)\USGS\Phreeqc Interactive 3.7.3-15968\database\phreeqc.dat

------------------
Reading data base.
------------------

	SOLUTION_MASTER_SPECIES
	SOLUTION_SPECIES
	PHASES
	EXCHANGE_MASTER_SPECIES
	EXCHANGE_SPECIES
	SURFACE_MASTER_SPECIES
	SURFACE_SPECIES
	RATES
	END
------------------------------------
Reading input data for simulation 1.
------------------------------------

	DATABASE C:\Program Files (x86)\USGS\Phreeqc Interactive 3.7.3-15968\database\phreeqc.dat
	SOLUTION_SPREAD
	  Na	  Mg	  Ca	   K	 N(-3)	  Cl	 N(5)	 S(6)
	 3.9	 3.3	 2.7	 2.2	   0.8	 4.8	  1.7	 43.3
	 0.3	 1.2	 2.2	 0.1	   0.6	 0.8	  1.9	  3.1
	 1.5	 5.9	 2.6	 0.3	   1.6	 3.5	  1.6	  3.7
	 2.5	 0.7	 3.2	 0.2	   0.7	 4.4	  1.4	  3.5
	 4.1	 1.1	 5.9	 0.4	   0.9	 7.7	  2.3	  4.9
	 0.6	 0.3	 1.3	 0.1	   0.7	 1.1	  1.2	  2.7
	 0.4	 1.7	 2.4	 0.1	   0.5	 1.1	  1.9	  2.9
	 0.5	 0.2	 0.6	 0.2	   0.2	 0.9	  1.1	  1.2
	 0.3	 1.1	 2.0	 0.4	   0.2	 0.8	  1.9	  1.9
	 1.1	 1.0	 2.5	 1.5	   0.7	 2.4	  0.7	  0.9
	 0.9	 0.5	 2.9	 0.6	   0.4	 2.1	  2.0	  1.1
	 0.5	 0.2	 2.4	 0.5	   0.7	 0.9	  0.4	  2.3
	 1.1	 0.6	 2.7	 0.2	   0.8	 0.7	  0.9	  1.2
	 0.3	 0.6	 1.0	 0.1	   0.7	 1.1	  0.6	  0.8
	 0.6	 0.5	 1.3	 0.2	   0.4	 1.2	  1.2	  0.9
	 0.5	 1.5	 1.3	 0.6	   0.9	 0.7	  0.9	  1.2
	 0.4	 1.1	 1.1	 0.2	   2.1	 1.0	  1.7	  1.4
	 0.7	 0.3	 0.7	 0.1	   0.3	 1.1	  0.7	  1.3
	 0.3	 0.1	 0.3	 0.1	   0.3	 0.4	  0.6	  0.9
	 0.2	 0.1	 0.3	 0.1	   0.1	 0.4	  0.5	  0.7
	 0.1	 0.1	 0.8	 0.1	   1.0	 0.3	  0.9	  1.6
	 0.4	 0.3	 0.8	 0.5	   0.5	 0.8	  0.5	  2.5
	 0.6	 0.5	 2.0	 0.5	   1.1	 1.2	  0.8	  3.7
	 0.4	 0.6	 2.0	 1.1	   0.8	 1.3	  1.1	  4.2
	 0.6	 0.3	 1.3	 0.2	   0.2	 1.0	  1.3	  1.6
	 0.4	 0.6	 2.0	 0.3	   0.2	 0.9	  1.9	  1.9
	 0.3	 0.3	 1.0	 0.2	   0.3	 0.7	  1.4	  1.8
	 0.6	 2.3	 4.0	 0.2	   0.9	 1.7	  2.8	  3.8
	 0.4	 0.3	 1.3	 0.1	   0.6	 1.0	  1.6	  2.1
	 0.3	 1.2	 1.9	 0.2	   0.5	 0.9	  1.7	  2.6
	 0.5	 0.5	 2.2	 0.5	   0.6	 1.2	  1.7	  2.0
	 1.9	 1.9	 2.5	 0.6	   1.8	 3.5	  4.5	  6.4
	 1.2	 0.4	 2.3	 0.5	   0.7	 1.4	  1.6	  4.2
	 1.3	 0.3	 0.1	 0.1	   0.3	 2.0	  0.7	  1.9
	 0.4	 0.0	 0.0	 0.0	   0.1	 0.7	  0.3	  0.4
	 1.4	 0.4	 1.2	 0.2	   0.5	 2.4	 12.5	  3.1
	 0.2	 0.2	 0.8	 0.2	   0.7	 0.3	  2.4	  2.5
	 0.2	 0.1	 0.5	 0.3	   0.5	 1.5	  3.7	  3.1
	 0.9	 0.3	 0.9	 0.1	   0.0	 1.3	  0.7	  1.0
	 1.2	 0.3	 0.9	 0.2	   0.1	 1.7	  1.9	  0.9
	 0.7	 0.2	 1.8	 0.4	   0.6	 1.3	  2.5	  3.8
	 0.8	 0.3	 2.0	 0.5	   0.7	 1.3	  2.9	  4.0
	 1.1	 0.3	 0.8	 0.2	   0.3	 1.7	  0.1	  0.8
	 0.1	 0.1	 0.8	 0.2	   0.3	 3.2	  0.5	  1.2
	 0.3	 0.1	 0.3	 0.0	   0.2	 0.7	  0.5	  0.6
	 0.5	 0.3	 1.0	 0.1	   0.2	 0.9	  0.7	  0.9
	 0.8	 0.3	 1.3	 0.0	   0.2	 1.1	  0.6	  1.2
	 0.8	 0.4	 1.3	 0.0	   0.2	 1.2	  0.7	  1.2
	 0.6	 0.4	 1.1	 0.1	   0.2	 0.7	  0.8	  1.3
	 0.3	 0.1	 1.2	 0.0	   0.1	 0.9	  0.9	  1.5
	 0.6	 0.3	 1.5	 0.7	   0.5	 2.2	  1.9	  1.1
	 3.4	 1.5	 2.6	 0.2	   0.3	 4.8	  4.1	  5.3
	 4.1	 1.4	 3.1	 0.2	   0.2	 6.1	  2.1	  2.5
	 5.1	 1.1	 2.7	 0.2	   0.1	 8.4	  0.6	  1.7
	 5.1	 3.0	 6.6	 0.4	   0.9	 9.7	  1.1	  8.4
	 0.3	 0.1	 0.6	 0.1	   0.1	 0.5	  0.6	  1.0
	 2.0	 0.3	 0.9	 0.2	   0.2	 3.9	  0.7	  1.1
-------------------------------------------
Beginning of initial solution calculations.
-------------------------------------------

Initial solution 1.	

-----------------------------Solution composition------------------------------

	Elements           Molality       Moles

	Ca                2.700e-03   2.700e-03
	Cl                4.800e-03   4.800e-03
	K                 2.200e-03   2.200e-03
	Mg                3.300e-03   3.300e-03
	N(-3)             8.000e-04   8.000e-04
	N(5)              1.700e-03   1.700e-03
	Na                3.900e-03   3.900e-03
	S(6)              4.330e-02   4.330e-02

----------------------------Description of solution----------------------------

                                       pH  =   7.000    
                                       pe  =   4.000    
      Specific Conductance (µS/cm,  25°C)  = 5664
                          Density (g/cm³)  =   1.00108
                               Volume (L)  =   1.00373
                        Activity of water  =   0.999
                 Ionic strength (mol/kgw)  =   9.072e-02
                       Mass of water (kg)  =   1.000e+00
                 Total alkalinity (eq/kg)  =   2.672e-06
                         Temperature (°C)  =  25.00
                  Electrical balance (eq)  =  -7.420e-02
 Percent error, 100*(Cat-|An|)/(Cat+|An|)  = -76.17
                               Iterations  =   5
                                  Total H  = 1.110156e+02
                                  Total O  = 5.568452e+01

---------------------------------Redox couples---------------------------------

	Redox couple             pe  Eh (volts)

	N(-3)/N(5)           6.1858      0.3659

----------------------------Distribution of species----------------------------

                                               Log       Log       Log    mole V
   Species          Molality    Activity  Molality  Activity     Gamma    cm³/mol

   OH-             1.315e-07   1.011e-07    -6.881    -6.995    -0.114     -3.76
   H+              1.206e-07   1.000e-07    -6.919    -7.000    -0.081      0.00
   H2O             5.551e+01   9.990e-01     1.744    -0.000     0.000     18.07
Ca            2.700e-03
   CaSO4           1.389e-03   1.418e-03    -2.857    -2.848     0.009      7.50
   Ca+2            1.311e-03   5.266e-04    -2.882    -3.278    -0.396    -17.46
   CaHSO4+         1.185e-09   9.322e-10    -8.926    -9.030    -0.104     (0)  
   CaOH+           1.110e-09   8.731e-10    -8.955    -9.059    -0.104     (0)  
Cl            4.800e-03
   Cl-             4.800e-03   3.713e-03    -2.319    -2.430    -0.111     18.33
H(0)          1.387e-25
   H2              6.933e-26   7.079e-26   -25.159   -25.150     0.009     28.61
K             2.200e-03
   K+              1.994e-03   1.538e-03    -2.700    -2.813    -0.113      9.23
   KSO4-           2.061e-04   1.637e-04    -3.686    -3.786    -0.100     34.36
Mg            3.300e-03
   MgSO4           1.953e-03   1.994e-03    -2.709    -2.700     0.009      5.84
   Mg+2            1.347e-03   5.618e-04    -2.871    -3.250    -0.380    -21.16
   MgOH+           2.527e-08   2.038e-08    -7.597    -7.691    -0.093     (0)  
N(-3)         8.000e-04
   NH4+            6.717e-04   5.059e-04    -3.173    -3.296    -0.123     18.16
   NH4SO4-         1.254e-04   9.869e-05    -3.902    -4.006    -0.104     38.08
   NH3             2.823e-06   2.883e-06    -5.549    -5.540     0.009     24.42
N(5)          1.700e-03
   NO3-            1.700e-03   1.294e-03    -2.770    -2.888    -0.118     29.75
Na            3.900e-03
   Na+             3.626e-03   2.867e-03    -2.441    -2.543    -0.102     -1.11
   NaSO4-          2.740e-04   2.176e-04    -3.562    -3.662    -0.100     16.17
   NaOH            2.839e-20   2.899e-20   -19.547   -19.538     0.009     (0)  
O(0)          0.000e+00
   O2              0.000e+00   0.000e+00   -42.090   -42.081     0.009     30.40
S(6)          4.330e-02
   SO4-2           3.935e-02   1.514e-02    -1.405    -1.820    -0.415     15.53
   MgSO4           1.953e-03   1.994e-03    -2.709    -2.700     0.009      5.84
   CaSO4           1.389e-03   1.418e-03    -2.857    -2.848     0.009      7.50
   NaSO4-          2.740e-04   2.176e-04    -3.562    -3.662    -0.100     16.17
   KSO4-           2.061e-04   1.637e-04    -3.686    -3.786    -0.100     34.36
   NH4SO4-         1.254e-04   9.869e-05    -3.902    -4.006    -0.104     38.08
   HSO4-           1.872e-07   1.472e-07    -6.728    -6.832    -0.104     40.52
   CaHSO4+         1.185e-09   9.322e-10    -8.926    -9.030    -0.104     (0)  

------------------------------Saturation indices-------------------------------

  Phase               SI** log IAP   log K(298 K,   1 atm)

  Anhydrite        -0.82     -5.10   -4.28  CaSO4
  Gypsum           -0.52     -5.10   -4.58  CaSO4:2H2O
  H2(g)           -22.05    -25.15   -3.10  H2
  H2O(g)           -1.50     -0.00    1.50  H2O
  Halite           -6.54     -4.97    1.57  NaCl
  NH3(g)           -7.34     -5.54    1.80  NH3
  O2(g)           -39.19    -42.08   -2.89  O2
  Sylvite          -6.14     -5.24    0.90  KCl

**For a gas, SI = log10(fugacity). Fugacity = pressure * phi / 1 atm.
  For ideal gases, phi = 1.

Initial solution 2.	

-----------------------------Solution composition------------------------------

	Elements           Molality       Moles

	Ca                2.200e-03   2.200e-03
	Cl                8.000e-04   8.000e-04
	K                 1.000e-04   1.000e-04
	Mg                1.200e-03   1.200e-03
	N(-3)             6.000e-04   6.000e-04
	N(5)              1.900e-03   1.900e-03
	Na                3.000e-04   3.000e-04
	S(6)              3.100e-03   3.100e-03

----------------------------Description of solution----------------------------

                                       pH  =   7.000    
                                       pe  =   4.000    
      Specific Conductance (µS/cm,  25°C)  = 850
                          Density (g/cm³)  =   0.99756
                               Volume (L)  =   1.00304
                        Activity of water  =   1.000
                 Ionic strength (mol/kgw)  =   1.251e-02
                       Mass of water (kg)  =   1.000e+00
                 Total alkalinity (eq/kg)  =   2.961e-06
                         Temperature (°C)  =  25.00
                  Electrical balance (eq)  =  -1.103e-03
 Percent error, 100*(Cat-|An|)/(Cat+|An|)  =  -7.68
                               Iterations  =   4 (9 overall)
                                  Total H  = 1.110148e+02
                                  Total O  = 5.552432e+01

---------------------------------Redox couples---------------------------------

	Redox couple             pe  Eh (volts)

	N(-3)/N(5)           6.1987      0.3667

----------------------------Distribution of species----------------------------

                                               Log       Log       Log    mole V
   Species          Molality    Activity  Molality  Activity     Gamma    cm³/mol

   OH-             1.137e-07   1.012e-07    -6.944    -6.995    -0.051     -4.02
   H+              1.104e-07   1.000e-07    -6.957    -7.000    -0.043      0.00
   H2O             5.551e+01   9.998e-01     1.744    -0.000     0.000     18.07
Ca            2.200e-03
   Ca+2            1.859e-03   1.198e-03    -2.731    -2.922    -0.191    -17.89
   CaSO4           3.414e-04   3.424e-04    -3.467    -3.466     0.001      7.50
   CaOH+           2.227e-09   1.988e-09    -8.652    -8.702    -0.049     (0)  
   CaHSO4+         2.521e-10   2.250e-10    -9.598    -9.648    -0.049     (0)  
Cl            8.000e-04
   Cl-             8.000e-04   7.128e-04    -3.097    -3.147    -0.050     18.15
H(0)          1.412e-25
   H2              7.059e-26   7.079e-26   -25.151   -25.150     0.001     28.61
K             1.000e-04
   K+              9.889e-05   8.806e-05    -4.005    -4.055    -0.050      9.08
   KSO4-           1.110e-06   9.943e-07    -5.955    -6.002    -0.048     34.18
Mg            1.200e-03
   Mg+2            9.646e-04   6.266e-04    -3.016    -3.203    -0.187    -21.58
   MgSO4           2.354e-04   2.361e-04    -3.628    -3.627     0.001      5.84
   MgOH+           2.529e-08   2.275e-08    -7.597    -7.643    -0.046     (0)  
N(-3)         6.000e-04
   NH4+            5.850e-04   5.187e-04    -3.233    -3.285    -0.052     18.03
   NH4SO4-         1.203e-05   1.074e-05    -4.920    -4.969    -0.049     37.72
   NH3             2.947e-06   2.956e-06    -5.531    -5.529     0.001     24.42
N(5)          1.900e-03
   NO3-            1.900e-03   1.688e-03    -2.721    -2.773    -0.051     29.57
Na            3.000e-04
   Na+             2.976e-04   2.661e-04    -3.526    -3.575    -0.049     -1.36
   NaSO4-          2.391e-06   2.143e-06    -5.621    -5.669    -0.048     14.43
   NaOH            2.685e-21   2.693e-21   -20.571   -20.570     0.001     (0)  
O(0)          0.000e+00
   O2              0.000e+00   0.000e+00   -42.081   -42.080     0.001     30.40
S(6)          3.100e-03
   SO4-2           2.508e-03   1.607e-03    -2.601    -2.794    -0.193     14.82
   CaSO4           3.414e-04   3.424e-04    -3.467    -3.466     0.001      7.50
   MgSO4           2.354e-04   2.361e-04    -3.628    -3.627     0.001      5.84
   NH4SO4-         1.203e-05   1.074e-05    -4.920    -4.969    -0.049     37.72
   NaSO4-          2.391e-06   2.143e-06    -5.621    -5.669    -0.048     14.43
   KSO4-           1.110e-06   9.943e-07    -5.955    -6.002    -0.048     34.18
   HSO4-           1.751e-08   1.562e-08    -7.757    -7.806    -0.049     40.35
   CaHSO4+         2.521e-10   2.250e-10    -9.598    -9.648    -0.049     (0)  

------------------------------Saturation indices-------------------------------

  Phase               SI** log IAP   log K(298 K,   1 atm)

  Anhydrite        -1.44     -5.72   -4.28  CaSO4
  Gypsum           -1.13     -5.72   -4.58  CaSO4:2H2O
  H2(g)           -22.05    -25.15   -3.10  H2
  H2O(g)           -1.50     -0.00    1.50  H2O
  Halite           -8.29     -6.72    1.57  NaCl
  NH3(g)           -7.33     -5.53    1.80  NH3
  O2(g)           -39.19    -42.08   -2.89  O2
  Sylvite          -8.10     -7.20    0.90  KCl

**For a gas, SI = log10(fugacity). Fugacity = pressure * phi / 1 atm.
  For ideal gases, phi = 1.

Initial solution 3.	

-----------------------------Solution composition------------------------------

	Elements           Molality       Moles

	Ca                2.600e-03   2.600e-03
	Cl                3.500e-03   3.500e-03
	K                 3.000e-04   3.000e-04
	Mg                5.900e-03   5.900e-03
	N(-3)             1.600e-03   1.600e-03
	N(5)              1.600e-03   1.600e-03
	Na                1.500e-03   1.500e-03
	S(6)              3.700e-03   3.700e-03

----------------------------Description of solution----------------------------

                                       pH  =   7.000    
                                       pe  =   4.000    
      Specific Conductance (µS/cm,  25°C)  = 1495
                          Density (g/cm³)  =   0.99790
                               Volume (L)  =   1.00300
                        Activity of water  =   1.000
                 Ionic strength (mol/kgw)  =   2.367e-02
                       Mass of water (kg)  =   1.000e+00
                 Total alkalinity (eq/kg)  =   7.668e-06
                         Temperature (°C)  =  25.00
                  Electrical balance (eq)  =   7.892e-03
 Percent error, 100*(Cat-|An|)/(Cat+|An|)  =  28.27
                               Iterations  =   4 (13 overall)
                                  Total H  = 1.110188e+02
                                  Total O  = 5.552582e+01

---------------------------------Redox couples---------------------------------

	Redox couple             pe  Eh (volts)

	N(-3)/N(5)           6.1361      0.3630

----------------------------Distribution of species----------------------------

                                               Log       Log       Log    mole V
   Species          Molality    Activity  Molality  Activity     Gamma    cm³/mol

   OH-             1.180e-07   1.012e-07    -6.928    -6.995    -0.067     -3.97
   H+              1.132e-07   1.000e-07    -6.946    -7.000    -0.054      0.00
   H2O             5.551e+01   9.997e-01     1.744    -0.000     0.000     18.07
Ca            2.600e-03
   Ca+2            2.287e-03   1.296e-03    -2.641    -2.887    -0.247    -17.78
   CaSO4           3.129e-04   3.146e-04    -3.505    -3.502     0.002      7.50
   CaOH+           2.494e-09   2.150e-09    -8.603    -8.667    -0.064     (0)  
   CaHSO4+         2.398e-10   2.068e-10    -9.620    -9.685    -0.064     (0)  
Cl            3.500e-03
   Cl-             3.500e-03   3.007e-03    -2.456    -2.522    -0.066     18.19
H(0)          1.408e-25
   H2              7.041e-26   7.079e-26   -25.152   -25.150     0.002     28.61
K             3.000e-04
   K+              2.972e-04   2.551e-04    -3.527    -3.593    -0.066      9.11
   KSO4-           2.819e-06   2.446e-06    -5.550    -5.611    -0.062     34.22
Mg            5.900e-03
   Mg+2            4.988e-03   2.865e-03    -2.302    -2.543    -0.241    -21.47
   MgSO4           9.116e-04   9.166e-04    -3.040    -3.038     0.002      5.84
   MgOH+           1.191e-07   1.040e-07    -6.924    -6.983    -0.059     (0)  
N(-3)         1.600e-03
   NH4+            1.565e-03   1.333e-03    -2.805    -2.875    -0.070     18.06
   NH4SO4-         2.719e-05   2.344e-05    -4.566    -4.630    -0.064     37.78
   NH3             7.557e-06   7.598e-06    -5.122    -5.119     0.002     24.42
N(5)          1.600e-03
   NO3-            1.600e-03   1.368e-03    -2.796    -2.864    -0.068     29.61
Na            1.500e-03
   Na+             1.490e-03   1.288e-03    -2.827    -2.890    -0.063     -1.30
   NaSO4-          1.016e-05   8.813e-06    -4.993    -5.055    -0.062     14.81
   NaOH            1.296e-20   1.304e-20   -19.887   -19.885     0.002     (0)  
O(0)          0.000e+00
   O2              0.000e+00   0.000e+00   -42.083   -42.080     0.002     30.40
S(6)          3.700e-03
   SO4-2           2.435e-03   1.365e-03    -2.613    -2.865    -0.251     14.97
   MgSO4           9.116e-04   9.166e-04    -3.040    -3.038     0.002      5.84
   CaSO4           3.129e-04   3.146e-04    -3.505    -3.502     0.002      7.50
   NH4SO4-         2.719e-05   2.344e-05    -4.566    -4.630    -0.064     37.78
   NaSO4-          1.016e-05   8.813e-06    -4.993    -5.055    -0.062     14.81
   KSO4-           2.819e-06   2.446e-06    -5.550    -5.611    -0.062     34.22
   HSO4-           1.539e-08   1.327e-08    -7.813    -7.877    -0.064     40.39
   CaHSO4+         2.398e-10   2.068e-10    -9.620    -9.685    -0.064     (0)  

------------------------------Saturation indices-------------------------------

  Phase               SI** log IAP   log K(298 K,   1 atm)

  Anhydrite        -1.47     -5.75   -4.28  CaSO4
  Gypsum           -1.17     -5.75   -4.58  CaSO4:2H2O
  H2(g)           -22.05    -25.15   -3.10  H2
  H2O(g)           -1.50     -0.00    1.50  H2O
  Halite           -6.98     -5.41    1.57  NaCl
  NH3(g)           -6.92     -5.12    1.80  NH3
  O2(g)           -39.19    -42.08   -2.89  O2
  Sylvite          -7.02     -6.12    0.90  KCl

**For a gas, SI = log10(fugacity). Fugacity = pressure * phi / 1 atm.
  For ideal gases, phi = 1.

Initial solution 4.	

-----------------------------Solution composition------------------------------

	Elements           Molality       Moles

	Ca                3.200e-03   3.200e-03
	Cl                4.400e-03   4.400e-03
	K                 2.000e-04   2.000e-04
	Mg                7.000e-04   7.000e-04
	N(-3)             7.000e-04   7.000e-04
	N(5)              1.400e-03   1.400e-03
	Na                2.500e-03   2.500e-03
	S(6)              3.500e-03   3.500e-03

----------------------------Description of solution----------------------------

                                       pH  =   7.000    
                                       pe  =   4.000    
      Specific Conductance (µS/cm,  25°C)  = 1260
                          Density (g/cm³)  =   0.99772
                               Volume (L)  =   1.00309
                        Activity of water  =   1.000
                 Ionic strength (mol/kgw)  =   1.678e-02
                       Mass of water (kg)  =   1.000e+00
                 Total alkalinity (eq/kg)  =   3.375e-06
                         Temperature (°C)  =  25.00
                  Electrical balance (eq)  =  -1.603e-03
 Percent error, 100*(Cat-|An|)/(Cat+|An|)  =  -7.50
                               Iterations  =   4 (17 overall)
                                  Total H  = 1.110152e+02
                                  Total O  = 5.552442e+01

---------------------------------Redox couples---------------------------------

	Redox couple             pe  Eh (volts)

	N(-3)/N(5)           6.1739      0.3652

----------------------------Distribution of species----------------------------

                                               Log       Log       Log    mole V
   Species          Molality    Activity  Molality  Activity     Gamma    cm³/mol

   OH-             1.155e-07   1.012e-07    -6.937    -6.995    -0.057     -4.00
   H+              1.116e-07   1.000e-07    -6.952    -7.000    -0.048      0.00
   H2O             5.551e+01   9.997e-01     1.744    -0.000     0.000     18.07
Ca            3.200e-03
   Ca+2            2.702e-03   1.646e-03    -2.568    -2.783    -0.215    -17.85
   CaSO4           4.982e-04   5.001e-04    -3.303    -3.301     0.002      7.50
   CaOH+           3.107e-09   2.732e-09    -8.508    -8.564    -0.056     (0)  
   CaHSO4+         3.739e-10   3.287e-10    -9.427    -9.483    -0.056     (0)  
Cl            4.400e-03
   Cl-             4.400e-03   3.859e-03    -2.357    -2.413    -0.057     18.17
H(0)          1.410e-25
   H2              7.052e-26   7.079e-26   -25.152   -25.150     0.002     28.61
K             2.000e-04
   K+              1.976e-04   1.732e-04    -3.704    -3.761    -0.057      9.09
   KSO4-           2.353e-06   2.079e-06    -5.628    -5.682    -0.054     34.20
Mg            7.000e-04
   Mg+2            5.620e-04   3.459e-04    -3.250    -3.461    -0.211    -21.53
   MgSO4           1.380e-04   1.385e-04    -3.860    -3.859     0.002      5.84
   MgOH+           1.414e-08   1.256e-08    -7.849    -7.901    -0.052     (0)  
N(-3)         7.000e-04
   NH4+            6.818e-04   5.942e-04    -3.166    -3.226    -0.060     18.04
   NH4SO4-         1.487e-05   1.308e-05    -4.828    -4.884    -0.056     37.74
   NH3             3.373e-06   3.386e-06    -5.472    -5.470     0.002     24.42
N(5)          1.400e-03
   NO3-            1.400e-03   1.223e-03    -2.854    -2.912    -0.059     29.58
Na            2.500e-03
   Na+             2.479e-03   2.184e-03    -2.606    -2.661    -0.055     -1.34
   NaSO4-          2.116e-05   1.870e-05    -4.674    -4.728    -0.054     14.59
   NaOH            2.202e-20   2.210e-20   -19.657   -19.656     0.002     (0)  
O(0)          0.000e+00
   O2              0.000e+00   0.000e+00   -42.082   -42.080     0.002     30.40
S(6)          3.500e-03
   SO4-2           2.825e-03   1.708e-03    -2.549    -2.767    -0.219     14.88
   CaSO4           4.982e-04   5.001e-04    -3.303    -3.301     0.002      7.50
   MgSO4           1.380e-04   1.385e-04    -3.860    -3.859     0.002      5.84
   NaSO4-          2.116e-05   1.870e-05    -4.674    -4.728    -0.054     14.59
   NH4SO4-         1.487e-05   1.308e-05    -4.828    -4.884    -0.056     37.74
   KSO4-           2.353e-06   2.079e-06    -5.628    -5.682    -0.054     34.20
   HSO4-           1.889e-08   1.661e-08    -7.724    -7.780    -0.056     40.37
   CaHSO4+         3.739e-10   3.287e-10    -9.427    -9.483    -0.056     (0)  

------------------------------Saturation indices-------------------------------

  Phase               SI** log IAP   log K(298 K,   1 atm)

  Anhydrite        -1.27     -5.55   -4.28  CaSO4
  Gypsum           -0.97     -5.55   -4.58  CaSO4:2H2O
  H2(g)           -22.05    -25.15   -3.10  H2
  H2O(g)           -1.50     -0.00    1.50  H2O
  Halite           -6.64     -5.07    1.57  NaCl
  NH3(g)           -7.27     -5.47    1.80  NH3
  O2(g)           -39.19    -42.08   -2.89  O2
  Sylvite          -7.07     -6.17    0.90  KCl

**For a gas, SI = log10(fugacity). Fugacity = pressure * phi / 1 atm.
  For ideal gases, phi = 1.

Initial solution 5.	

-----------------------------Solution composition------------------------------

	Elements           Molality       Moles

	Ca                5.900e-03   5.900e-03
	Cl                7.700e-03   7.700e-03
	K                 4.000e-04   4.000e-04
	Mg                1.100e-03   1.100e-03
	N(-3)             9.000e-04   9.000e-04
	N(5)              2.300e-03   2.300e-03
	Na                4.100e-03   4.100e-03
	S(6)              4.900e-03   4.900e-03

----------------------------Description of solution----------------------------

                                       pH  =   7.000    
                                       pe  =   4.000    
      Specific Conductance (µS/cm,  25°C)  = 1954
                          Density (g/cm³)  =   0.99813
                               Volume (L)  =   1.00315
                        Activity of water  =   1.000
                 Ionic strength (mol/kgw)  =   2.662e-02
                       Mass of water (kg)  =   1.000e+00
                 Total alkalinity (eq/kg)  =   4.187e-06
                         Temperature (°C)  =  25.00
                  Electrical balance (eq)  =  -4.042e-04
 Percent error, 100*(Cat-|An|)/(Cat+|An|)  =  -1.18
                               Iterations  =   4 (21 overall)
                                  Total H  = 1.110160e+02
                                  Total O  = 5.553272e+01

---------------------------------Redox couples---------------------------------

	Redox couple             pe  Eh (volts)

	N(-3)/N(5)           6.1875      0.3660

----------------------------Distribution of species----------------------------

                                               Log       Log       Log    mole V
   Species          Molality    Activity  Molality  Activity     Gamma    cm³/mol

   OH-             1.189e-07   1.012e-07    -6.925    -6.995    -0.070     -3.96
   H+              1.138e-07   1.000e-07    -6.944    -7.000    -0.056      0.00
   H2O             5.551e+01   9.996e-01     1.744    -0.000     0.000     18.07
Ca            5.900e-03
   Ca+2            4.942e-03   2.727e-03    -2.306    -2.564    -0.258    -17.76
   CaSO4           9.583e-04   9.641e-04    -3.019    -3.016     0.003      7.50
   CaOH+           5.285e-09   4.524e-09    -8.277    -8.344    -0.067     (0)  
   CaHSO4+         7.403e-10   6.337e-10    -9.131    -9.198    -0.067     (0)  
Cl            7.700e-03
   Cl-             7.700e-03   6.566e-03    -2.114    -2.183    -0.069     18.20
H(0)          1.407e-25
   H2              7.036e-26   7.079e-26   -25.153   -25.150     0.003     28.61
K             4.000e-04
   K+              3.946e-04   3.361e-04    -3.404    -3.474    -0.070      9.12
   KSO4-           5.446e-06   4.694e-06    -5.264    -5.328    -0.065     34.23
Mg            1.100e-03
   Mg+2            8.734e-04   4.892e-04    -3.059    -3.311    -0.252    -21.45
   MgSO4           2.266e-04   2.280e-04    -3.645    -3.642     0.003      5.84
   MgOH+           2.046e-08   1.775e-08    -7.689    -7.751    -0.062     (0)  
N(-3)         9.000e-04
   NH4+            8.737e-04   7.379e-04    -3.059    -3.132    -0.073     18.07
   NH4SO4-         2.207e-05   1.890e-05    -4.656    -4.724    -0.067     37.80
   NH3             4.179e-06   4.205e-06    -5.379    -5.376     0.003     24.42
N(5)          2.300e-03
   NO3-            2.300e-03   1.950e-03    -2.638    -2.710    -0.072     29.62
Na            4.100e-03
   Na+             4.060e-03   3.487e-03    -2.392    -2.458    -0.066     -1.29
   NaSO4-          4.030e-05   3.474e-05    -4.395    -4.459    -0.065     14.89
   NaOH            3.506e-20   3.527e-20   -19.455   -19.453     0.003     (0)  
O(0)          0.000e+00
   O2              0.000e+00   0.000e+00   -42.083   -42.080     0.003     30.40
S(6)          4.900e-03
   SO4-2           3.647e-03   1.988e-03    -2.438    -2.702    -0.264     15.01
   CaSO4           9.583e-04   9.641e-04    -3.019    -3.016     0.003      7.50
   MgSO4           2.266e-04   2.280e-04    -3.645    -3.642     0.003      5.84
   NaSO4-          4.030e-05   3.474e-05    -4.395    -4.459    -0.065     14.89
   NH4SO4-         2.207e-05   1.890e-05    -4.656    -4.724    -0.067     37.80
   KSO4-           5.446e-06   4.694e-06    -5.264    -5.328    -0.065     34.23
   HSO4-           2.258e-08   1.933e-08    -7.646    -7.714    -0.067     40.40
   CaHSO4+         7.403e-10   6.337e-10    -9.131    -9.198    -0.067     (0)  

------------------------------Saturation indices-------------------------------

  Phase               SI** log IAP   log K(298 K,   1 atm)

  Anhydrite        -0.99     -5.27   -4.28  CaSO4
  Gypsum           -0.68     -5.27   -4.58  CaSO4:2H2O
  H2(g)           -22.05    -25.15   -3.10  H2
  H2O(g)           -1.50     -0.00    1.50  H2O
  Halite           -6.21     -4.64    1.57  NaCl
  NH3(g)           -7.17     -5.38    1.80  NH3
  O2(g)           -39.19    -42.08   -2.89  O2
  Sylvite          -6.56     -5.66    0.90  KCl

**For a gas, SI = log10(fugacity). Fugacity = pressure * phi / 1 atm.
  For ideal gases, phi = 1.

Initial solution 6.	

-----------------------------Solution composition------------------------------

	Elements           Molality       Moles

	Ca                1.300e-03   1.300e-03
	Cl                1.100e-03   1.100e-03
	K                 1.000e-04   1.000e-04
	Mg                3.000e-04   3.000e-04
	N(-3)             7.000e-04   7.000e-04
	N(5)              1.200e-03   1.200e-03
	Na                6.000e-04   6.000e-04
	S(6)              2.700e-03   2.700e-03

----------------------------Description of solution----------------------------

                                       pH  =   7.000    
                                       pe  =   4.000    
      Specific Conductance (µS/cm,  25°C)  = 704
                          Density (g/cm³)  =   0.99742
                               Volume (L)  =   1.00305
                        Activity of water  =   1.000
                 Ionic strength (mol/kgw)  =   9.310e-03
                       Mass of water (kg)  =   1.000e+00
                 Total alkalinity (eq/kg)  =   3.486e-06
                         Temperature (°C)  =  25.00
                  Electrical balance (eq)  =  -3.103e-03
 Percent error, 100*(Cat-|An|)/(Cat+|An|)  = -27.81
                               Iterations  =   4 (25 overall)
                                  Total H  = 1.110152e+02
                                  Total O  = 5.552062e+01

---------------------------------Redox couples---------------------------------

	Redox couple             pe  Eh (volts)

	N(-3)/N(5)           6.1654      0.3647

----------------------------Distribution of species----------------------------

                                               Log       Log       Log    mole V
   Species          Molality    Activity  Molality  Activity     Gamma    cm³/mol

   OH-             1.121e-07   1.012e-07    -6.951    -6.995    -0.044     -4.04
   H+              1.092e-07   1.000e-07    -6.962    -7.000    -0.038      0.00
   H2O             5.551e+01   9.999e-01     1.744    -0.000     0.000     18.07
Ca            1.300e-03
   Ca+2            1.087e-03   7.378e-04    -2.964    -3.132    -0.168    -17.94
   CaSO4           2.128e-04   2.132e-04    -3.672    -3.671     0.001      7.50
   CaOH+           1.353e-09   1.224e-09    -8.869    -8.912    -0.043     (0)  
   CaHSO4+         1.549e-10   1.401e-10    -9.810    -9.853    -0.043     (0)  
Cl            1.100e-03
   Cl-             1.100e-03   9.941e-04    -2.959    -3.003    -0.044     18.14
H(0)          1.413e-25
   H2              7.064e-26   7.079e-26   -25.151   -25.150     0.001     28.61
K             1.000e-04
   K+              9.888e-05   8.932e-05    -4.005    -4.049    -0.044      9.07
   KSO4-           1.123e-06   1.020e-06    -5.949    -5.991    -0.042     34.17
Mg            3.000e-04
   Mg+2            2.382e-04   1.626e-04    -3.623    -3.789    -0.166    -21.62
   MgSO4           6.181e-05   6.195e-05    -4.209    -4.208     0.001      5.84
   MgOH+           6.485e-09   5.903e-09    -8.188    -8.229    -0.041     (0)  
N(-3)         7.000e-04
   NH4+            6.823e-04   6.143e-04    -3.166    -3.212    -0.046     18.02
   NH4SO4-         1.421e-05   1.286e-05    -4.847    -4.891    -0.043     37.69
   NH3             3.493e-06   3.501e-06    -5.457    -5.456     0.001     24.42
N(5)          1.200e-03
   NO3-            1.200e-03   1.082e-03    -2.921    -2.966    -0.045     29.55
Na            6.000e-04
   Na+             5.952e-04   5.393e-04    -3.225    -3.268    -0.043     -1.38
   NaSO4-          4.839e-06   4.392e-06    -5.315    -5.357    -0.042     14.29
   NaOH            5.446e-21   5.458e-21   -20.264   -20.263     0.001     (0)  
O(0)          0.000e+00
   O2              0.000e+00   0.000e+00   -42.081   -42.080     0.001     30.40
S(6)          2.700e-03
   SO4-2           2.405e-03   1.625e-03    -2.619    -2.789    -0.170     14.76
   CaSO4           2.128e-04   2.132e-04    -3.672    -3.671     0.001      7.50
   MgSO4           6.181e-05   6.195e-05    -4.209    -4.208     0.001      5.84
   NH4SO4-         1.421e-05   1.286e-05    -4.847    -4.891    -0.043     37.69
   NaSO4-          4.839e-06   4.392e-06    -5.315    -5.357    -0.042     14.29
   KSO4-           1.123e-06   1.020e-06    -5.949    -5.991    -0.042     34.17
   HSO4-           1.746e-08   1.580e-08    -7.758    -7.801    -0.043     40.34
   CaHSO4+         1.549e-10   1.401e-10    -9.810    -9.853    -0.043     (0)  

------------------------------Saturation indices-------------------------------

  Phase               SI** log IAP   log K(298 K,   1 atm)

  Anhydrite        -1.64     -5.92   -4.28  CaSO4
  Gypsum           -1.34     -5.92   -4.58  CaSO4:2H2O
  H2(g)           -22.05    -25.15   -3.10  H2
  H2O(g)           -1.50     -0.00    1.50  H2O
  Halite           -7.84     -6.27    1.57  NaCl
  NH3(g)           -7.25     -5.46    1.80  NH3
  O2(g)           -39.19    -42.08   -2.89  O2
  Sylvite          -7.95     -7.05    0.90  KCl

**For a gas, SI = log10(fugacity). Fugacity = pressure * phi / 1 atm.
  For ideal gases, phi = 1.

Initial solution 7.	

-----------------------------Solution composition------------------------------

	Elements           Molality       Moles

	Ca                2.400e-03   2.400e-03
	Cl                1.100e-03   1.100e-03
	K                 1.000e-04   1.000e-04
	Mg                1.700e-03   1.700e-03
	N(-3)             5.000e-04   5.000e-04
	N(5)              1.900e-03   1.900e-03
	Na                4.000e-04   4.000e-04
	S(6)              2.900e-03   2.900e-03

----------------------------Description of solution----------------------------

                                       pH  =   7.000    
                                       pe  =   4.000    
      Specific Conductance (µS/cm,  25°C)  = 890
                          Density (g/cm³)  =   0.99758
                               Volume (L)  =   1.00302
                        Activity of water  =   1.000
                 Ionic strength (mol/kgw)  =   1.345e-02
                       Mass of water (kg)  =   1.000e+00
                 Total alkalinity (eq/kg)  =   2.478e-06
                         Temperature (°C)  =  25.00
                  Electrical balance (eq)  =   3.975e-04
 Percent error, 100*(Cat-|An|)/(Cat+|An|)  =   2.57
                               Iterations  =   4 (29 overall)
                                  Total H  = 1.110144e+02
                                  Total O  = 5.552352e+01

---------------------------------Redox couples---------------------------------

	Redox couple             pe  Eh (volts)

	N(-3)/N(5)           6.2085      0.3673

----------------------------Distribution of species----------------------------

                                               Log       Log       Log    mole V
   Species          Molality    Activity  Molality  Activity     Gamma    cm³/mol

   OH-             1.141e-07   1.012e-07    -6.943    -6.995    -0.052     -4.01
   H+              1.107e-07   1.000e-07    -6.956    -7.000    -0.044      0.00
   H2O             5.551e+01   9.998e-01     1.744    -0.000     0.000     18.07
Ca            2.400e-03
   Ca+2            2.068e-03   1.315e-03    -2.685    -2.881    -0.197    -17.88
   CaSO4           3.324e-04   3.334e-04    -3.478    -3.477     0.001      7.50
   CaOH+           2.454e-09   2.182e-09    -8.610    -8.661    -0.051     (0)  
   CaHSO4+         2.464e-10   2.192e-10    -9.608    -9.659    -0.051     (0)  
Cl            1.100e-03
   Cl-             1.100e-03   9.765e-04    -2.959    -3.010    -0.052     18.15
H(0)          1.412e-25
   H2              7.058e-26   7.079e-26   -25.151   -25.150     0.001     28.61
K             1.000e-04
   K+              9.901e-05   8.784e-05    -4.004    -4.056    -0.052      9.08
   KSO4-           9.852e-07   8.799e-07    -6.006    -6.056    -0.049     34.18
Mg            1.700e-03
   Mg+2            1.401e-03   8.983e-04    -2.854    -3.047    -0.193    -21.57
   MgSO4           2.993e-04   3.002e-04    -3.524    -3.523     0.001      5.84
   MgOH+           3.637e-08   3.261e-08    -7.439    -7.487    -0.047     (0)  
N(-3)         5.000e-04
   NH4+            4.886e-04   4.315e-04    -3.311    -3.365    -0.054     18.03
   NH4SO4-         8.911e-06   7.925e-06    -5.050    -5.101    -0.051     37.72
   NH3             2.451e-06   2.459e-06    -5.611    -5.609     0.001     24.42
N(5)          1.900e-03
   NO3-            1.900e-03   1.681e-03    -2.721    -2.774    -0.053     29.57
Na            4.000e-04
   Na+             3.972e-04   3.539e-04    -3.401    -3.451    -0.050     -1.36
   NaSO4-          2.831e-06   2.529e-06    -5.548    -5.597    -0.049     14.47
   NaOH            3.570e-21   3.581e-21   -20.447   -20.446     0.001     (0)  
O(0)          0.000e+00
   O2              0.000e+00   0.000e+00   -42.081   -42.080     0.001     30.40
S(6)          2.900e-03
   SO4-2           2.256e-03   1.426e-03    -2.647    -2.846    -0.199     14.83
   CaSO4           3.324e-04   3.334e-04    -3.478    -3.477     0.001      7.50
   MgSO4           2.993e-04   3.002e-04    -3.524    -3.523     0.001      5.84
   NH4SO4-         8.911e-06   7.925e-06    -5.050    -5.101    -0.051     37.72
   NaSO4-          2.831e-06   2.529e-06    -5.548    -5.597    -0.049     14.47
   KSO4-           9.852e-07   8.799e-07    -6.006    -6.056    -0.049     34.18
   HSO4-           1.559e-08   1.386e-08    -7.807    -7.858    -0.051     40.36
   CaHSO4+         2.464e-10   2.192e-10    -9.608    -9.659    -0.051     (0)  

------------------------------Saturation indices-------------------------------

  Phase               SI** log IAP   log K(298 K,   1 atm)

  Anhydrite        -1.45     -5.73   -4.28  CaSO4
  Gypsum           -1.14     -5.73   -4.58  CaSO4:2H2O
  H2(g)           -22.05    -25.15   -3.10  H2
  H2O(g)           -1.50     -0.00    1.50  H2O
  Halite           -8.03     -6.46    1.57  NaCl
  NH3(g)           -7.41     -5.61    1.80  NH3
  O2(g)           -39.19    -42.08   -2.89  O2
  Sylvite          -7.97     -7.07    0.90  KCl

**For a gas, SI = log10(fugacity). Fugacity = pressure * phi / 1 atm.
  For ideal gases, phi = 1.

Initial solution 8.	

-----------------------------Solution composition------------------------------

	Elements           Molality       Moles

	Ca                6.000e-04   6.000e-04
	Cl                9.000e-04   9.000e-04
	K                 2.000e-04   2.000e-04
	Mg                2.000e-04   2.000e-04
	N(-3)             2.000e-04   2.000e-04
	N(5)              1.100e-03   1.100e-03
	Na                5.000e-04   5.000e-04
	S(6)              1.200e-03   1.200e-03

----------------------------Description of solution----------------------------

                                       pH  =   7.000    
                                       pe  =   4.000    
      Specific Conductance (µS/cm,  25°C)  = 421
                          Density (g/cm³)  =   0.99725
                               Volume (L)  =   1.00302
                        Activity of water  =   1.000
                 Ionic strength (mol/kgw)  =   5.104e-03
                       Mass of water (kg)  =   1.000e+00
                 Total alkalinity (eq/kg)  =   1.035e-06
                         Temperature (°C)  =  25.00
                  Electrical balance (eq)  =  -1.901e-03
 Percent error, 100*(Cat-|An|)/(Cat+|An|)  = -29.01
                               Iterations  =   3 (32 overall)
                                  Total H  = 1.110132e+02
                                  Total O  = 5.551432e+01

---------------------------------Redox couples---------------------------------

	Redox couple             pe  Eh (volts)

	N(-3)/N(5)           6.2281      0.3684

----------------------------Distribution of species----------------------------

                                               Log       Log       Log    mole V
   Species          Molality    Activity  Molality  Activity     Gamma    cm³/mol

   OH-             1.094e-07   1.012e-07    -6.961    -6.995    -0.034     -4.07
   H+              1.072e-07   1.000e-07    -6.970    -7.000    -0.030      0.00
   H2O             5.551e+01   9.999e-01     1.744    -0.000     0.000     18.07
Ca            6.000e-04
   Ca+2            5.413e-04   4.017e-04    -3.267    -3.396    -0.130    -18.01
   CaSO4           5.867e-05   5.874e-05    -4.232    -4.231     0.001      7.50
   CaOH+           7.195e-10   6.665e-10    -9.143    -9.176    -0.033     (0)  
   CaHSO4+         4.168e-11   3.861e-11   -10.380   -10.413    -0.033     (0)  
Cl            9.000e-04
   Cl-             9.000e-04   8.332e-04    -3.046    -3.079    -0.033     18.11
H(0)          1.414e-25
   H2              7.071e-26   7.079e-26   -25.151   -25.150     0.001     28.61
K             2.000e-04
   K+              1.989e-04   1.841e-04    -3.701    -3.735    -0.034      9.04
   KSO4-           1.146e-06   1.063e-06    -5.941    -5.973    -0.032     34.14
Mg            2.000e-04
   Mg+2            1.749e-04   1.302e-04    -3.757    -3.885    -0.128    -21.70
   MgSO4           2.508e-05   2.511e-05    -4.601    -4.600     0.001      5.84
   MgOH+           5.086e-09   4.729e-09    -8.294    -8.325    -0.032     (0)  
N(-3)         2.000e-04
   NH4+            1.969e-04   1.819e-04    -3.706    -3.740    -0.034     18.00
   NH4SO4-         2.080e-06   1.927e-06    -5.682    -5.715    -0.033     37.66
   NH3             1.035e-06   1.037e-06    -5.985    -5.984     0.001     24.42
N(5)          1.100e-03
   NO3-            1.100e-03   1.017e-03    -2.959    -2.993    -0.034     29.53
Na            5.000e-04
   Na+             4.980e-04   4.617e-04    -3.303    -3.336    -0.033     -1.42
   NaSO4-          2.050e-06   1.903e-06    -5.688    -5.721    -0.032     14.08
   NaOH            4.667e-21   4.673e-21   -20.331   -20.330     0.001     (0)  
O(0)          0.000e+00
   O2              0.000e+00   0.000e+00   -42.081   -42.080     0.001     30.40
S(6)          1.200e-03
   SO4-2           1.111e-03   8.223e-04    -2.954    -3.085    -0.131     14.66
   CaSO4           5.867e-05   5.874e-05    -4.232    -4.231     0.001      7.50
   MgSO4           2.508e-05   2.511e-05    -4.601    -4.600     0.001      5.84
   NH4SO4-         2.080e-06   1.927e-06    -5.682    -5.715    -0.033     37.66
   NaSO4-          2.050e-06   1.903e-06    -5.688    -5.721    -0.032     14.08
   KSO4-           1.146e-06   1.063e-06    -5.941    -5.973    -0.032     34.14
   HSO4-           8.631e-09   7.995e-09    -8.064    -8.097    -0.033     40.31
   CaHSO4+         4.168e-11   3.861e-11   -10.380   -10.413    -0.033     (0)  

------------------------------Saturation indices-------------------------------

  Phase               SI** log IAP   log K(298 K,   1 atm)

  Anhydrite        -2.20     -6.48   -4.28  CaSO4
  Gypsum           -1.90     -6.48   -4.58  CaSO4:2H2O
  H2(g)           -22.05    -25.15   -3.10  H2
  H2O(g)           -1.50     -0.00    1.50  H2O
  Halite           -7.98     -6.41    1.57  NaCl
  NH3(g)           -7.78     -5.98    1.80  NH3
  O2(g)           -39.19    -42.08   -2.89  O2
  Sylvite          -7.71     -6.81    0.90  KCl

**For a gas, SI = log10(fugacity). Fugacity = pressure * phi / 1 atm.
  For ideal gases, phi = 1.

Initial solution 9.	

-----------------------------Solution composition------------------------------

	Elements           Molality       Moles

	Ca                2.000e-03   2.000e-03
	Cl                8.000e-04   8.000e-04
	K                 4.000e-04   4.000e-04
	Mg                1.100e-03   1.100e-03
	N(-3)             2.000e-04   2.000e-04
	N(5)              1.900e-03   1.900e-03
	Na                3.000e-04   3.000e-04
	S(6)              1.900e-03   1.900e-03

----------------------------Description of solution----------------------------

                                       pH  =   7.000    
                                       pe  =   4.000    
      Specific Conductance (µS/cm,  25°C)  = 707
                          Density (g/cm³)  =   0.99745
                               Volume (L)  =   1.00302
                        Activity of water  =   1.000
                 Ionic strength (mol/kgw)  =   1.032e-02
                       Mass of water (kg)  =   1.000e+00
                 Total alkalinity (eq/kg)  =   1.020e-06
                         Temperature (°C)  =  25.00
                  Electrical balance (eq)  =   5.990e-04
 Percent error, 100*(Cat-|An|)/(Cat+|An|)  =   4.94
                               Iterations  =   4 (36 overall)
                                  Total H  = 1.110132e+02
                                  Total O  = 5.551952e+01

---------------------------------Redox couples---------------------------------

	Redox couple             pe  Eh (volts)

	N(-3)/N(5)           6.2579      0.3702

----------------------------Distribution of species----------------------------

                                               Log       Log       Log    mole V
   Species          Molality    Activity  Molality  Activity     Gamma    cm³/mol

   OH-             1.126e-07   1.012e-07    -6.948    -6.995    -0.046     -4.03
   H+              1.096e-07   1.000e-07    -6.960    -7.000    -0.040      0.00
   H2O             5.551e+01   9.999e-01     1.744    -0.000     0.000     18.07
Ca            2.000e-03
   Ca+2            1.786e-03   1.191e-03    -2.748    -2.924    -0.176    -17.92
   CaSO4           2.142e-04   2.147e-04    -3.669    -3.668     0.001      7.50
   CaOH+           2.194e-09   1.976e-09    -8.659    -8.704    -0.045     (0)  
   CaHSO4+         1.567e-10   1.411e-10    -9.805    -9.850    -0.045     (0)  
Cl            8.000e-04
   Cl-             8.000e-04   7.195e-04    -3.097    -3.143    -0.046     18.14
H(0)          1.413e-25
   H2              7.063e-26   7.079e-26   -25.151   -25.150     0.001     28.61
K             4.000e-04
   K+              3.972e-04   3.571e-04    -3.401    -3.447    -0.046      9.07
   KSO4-           2.815e-06   2.544e-06    -5.551    -5.595    -0.044     34.17
Mg            1.100e-03
   Mg+2            9.489e-04   6.370e-04    -3.023    -3.196    -0.173    -21.61
   MgSO4           1.511e-04   1.514e-04    -3.821    -3.820     0.001      5.84
   MgOH+           2.551e-08   2.313e-08    -7.593    -7.636    -0.043     (0)  
N(-3)         2.000e-04
   NH4+            1.964e-04   1.760e-04    -3.707    -3.755    -0.048     18.02
   NH4SO4-         2.552e-06   2.298e-06    -5.593    -5.639    -0.045     37.70
   NH3             1.000e-06   1.003e-06    -6.000    -5.999     0.001     24.42
N(5)          1.900e-03
   NO3-            1.900e-03   1.705e-03    -2.721    -2.768    -0.047     29.56
Na            3.000e-04
   Na+             2.985e-04   2.693e-04    -3.525    -3.570    -0.045     -1.38
   NaSO4-          1.514e-06   1.368e-06    -5.820    -5.864    -0.044     14.34
   NaOH            2.718e-21   2.725e-21   -20.566   -20.565     0.001     (0)  
O(0)          0.000e+00
   O2              0.000e+00   0.000e+00   -42.081   -42.080     0.001     30.40
S(6)          1.900e-03
   SO4-2           1.528e-03   1.014e-03    -2.816    -2.994    -0.178     14.78
   CaSO4           2.142e-04   2.147e-04    -3.669    -3.668     0.001      7.50
   MgSO4           1.511e-04   1.514e-04    -3.821    -3.820     0.001      5.84
   KSO4-           2.815e-06   2.544e-06    -5.551    -5.595    -0.044     34.17
   NH4SO4-         2.552e-06   2.298e-06    -5.593    -5.639    -0.045     37.70
   NaSO4-          1.514e-06   1.368e-06    -5.820    -5.864    -0.044     14.34
   HSO4-           1.095e-08   9.858e-09    -7.961    -8.006    -0.045     40.34
   CaHSO4+         1.567e-10   1.411e-10    -9.805    -9.850    -0.045     (0)  

------------------------------Saturation indices-------------------------------

  Phase               SI** log IAP   log K(298 K,   1 atm)

  Anhydrite        -1.64     -5.92   -4.28  CaSO4
  Gypsum           -1.34     -5.92   -4.58  CaSO4:2H2O
  H2(g)           -22.05    -25.15   -3.10  H2
  H2O(g)           -1.50     -0.00    1.50  H2O
  Halite           -8.28     -6.71    1.57  NaCl
  NH3(g)           -7.80     -6.00    1.80  NH3
  O2(g)           -39.19    -42.08   -2.89  O2
  Sylvite          -7.49     -6.59    0.90  KCl

**For a gas, SI = log10(fugacity). Fugacity = pressure * phi / 1 atm.
  For ideal gases, phi = 1.

Initial solution 10.	

-----------------------------Solution composition------------------------------

	Elements           Molality       Moles

	Ca                2.500e-03   2.500e-03
	Cl                2.400e-03   2.400e-03
	K                 1.500e-03   1.500e-03
	Mg                1.000e-03   1.000e-03
	N(-3)             7.000e-04   7.000e-04
	N(5)              7.000e-04   7.000e-04
	Na                1.100e-03   1.100e-03
	S(6)              9.000e-04   9.000e-04

----------------------------Description of solution----------------------------

                                       pH  =   7.000    
                                       pe  =   4.000    
      Specific Conductance (µS/cm,  25°C)  = 828
                          Density (g/cm³)  =   0.99744
                               Volume (L)  =   1.00300
                        Activity of water  =   1.000
                 Ionic strength (mol/kgw)  =   1.121e-02
                       Mass of water (kg)  =   1.000e+00
                 Total alkalinity (eq/kg)  =   3.536e-06
                         Temperature (°C)  =  25.00
                  Electrical balance (eq)  =   5.396e-03
 Percent error, 100*(Cat-|An|)/(Cat+|An|)  =  37.46
                               Iterations  =   3 (39 overall)
                                  Total H  = 1.110152e+02
                                  Total O  = 5.551192e+01

---------------------------------Redox couples---------------------------------

	Redox couple             pe  Eh (volts)

	N(-3)/N(5)           6.1353      0.3629

----------------------------Distribution of species----------------------------

                                               Log       Log       Log    mole V
   Species          Molality    Activity  Molality  Activity     Gamma    cm³/mol

   OH-             1.131e-07   1.012e-07    -6.947    -6.995    -0.048     -4.03
   H+              1.099e-07   1.000e-07    -6.959    -7.000    -0.041      0.00
   H2O             5.551e+01   9.998e-01     1.744    -0.000     0.000     18.07
Ca            2.500e-03
   Ca+2            2.374e-03   1.561e-03    -2.625    -2.807    -0.182    -17.91
   CaSO4           1.261e-04   1.265e-04    -3.899    -3.898     0.001      7.50
   CaOH+           2.886e-09   2.590e-09    -8.540    -8.587    -0.047     (0)  
   CaHSO4+         9.264e-11   8.312e-11   -10.033   -10.080    -0.047     (0)  
Cl            2.400e-03
   Cl-             2.400e-03   2.150e-03    -2.620    -2.668    -0.048     18.14
H(0)          1.412e-25
   H2              7.061e-26   7.079e-26   -25.151   -25.150     0.001     28.61
K             1.500e-03
   K+              1.495e-03   1.339e-03    -2.825    -2.873    -0.048      9.07
   KSO4-           4.759e-06   4.286e-06    -5.322    -5.368    -0.045     34.17
Mg            1.000e-03
   Mg+2            9.341e-04   6.185e-04    -3.030    -3.209    -0.179    -21.60
   MgSO4           6.589e-05   6.606e-05    -4.181    -4.180     0.001      5.84
   MgOH+           2.485e-08   2.245e-08    -7.605    -7.649    -0.044     (0)  
N(-3)         7.000e-04
   NH4+            6.924e-04   6.176e-04    -3.160    -3.209    -0.050     18.03
   NH4SO4-         4.040e-06   3.625e-06    -5.394    -5.441    -0.047     37.71
   NH3             3.511e-06   3.520e-06    -5.455    -5.454     0.001     24.42
N(5)          7.000e-04
   NO3-            7.000e-04   6.255e-04    -3.155    -3.204    -0.049     29.56
Na            1.100e-03
   Na+             1.097e-03   9.864e-04    -2.960    -3.006    -0.046     -1.37
   NaSO4-          2.501e-06   2.252e-06    -5.602    -5.647    -0.045     14.38
   NaOH            9.956e-21   9.982e-21   -20.002   -20.001     0.001     (0)  
O(0)          0.000e+00
   O2              0.000e+00   0.000e+00   -42.081   -42.080     0.001     30.40
S(6)          9.000e-04
   SO4-2           6.967e-04   4.556e-04    -3.157    -3.341    -0.184     14.79
   CaSO4           1.261e-04   1.265e-04    -3.899    -3.898     0.001      7.50
   MgSO4           6.589e-05   6.606e-05    -4.181    -4.180     0.001      5.84
   KSO4-           4.759e-06   4.286e-06    -5.322    -5.368    -0.045     34.17
   NH4SO4-         4.040e-06   3.625e-06    -5.394    -5.441    -0.047     37.71
   NaSO4-          2.501e-06   2.252e-06    -5.602    -5.647    -0.045     14.38
   HSO4-           4.937e-09   4.430e-09    -8.307    -8.354    -0.047     40.35
   CaHSO4+         9.264e-11   8.312e-11   -10.033   -10.080    -0.047     (0)  

------------------------------Saturation indices-------------------------------

  Phase               SI** log IAP   log K(298 K,   1 atm)

  Anhydrite        -1.87     -6.15   -4.28  CaSO4
  Gypsum           -1.57     -6.15   -4.58  CaSO4:2H2O
  H2(g)           -22.05    -25.15   -3.10  H2
  H2O(g)           -1.50     -0.00    1.50  H2O
  Halite           -7.24     -5.67    1.57  NaCl
  NH3(g)           -7.25     -5.45    1.80  NH3
  O2(g)           -39.19    -42.08   -2.89  O2
  Sylvite          -6.44     -5.54    0.90  KCl

**For a gas, SI = log10(fugacity). Fugacity = pressure * phi / 1 atm.
  For ideal gases, phi = 1.

Initial solution 11.	

-----------------------------Solution composition------------------------------

	Elements           Molality       Moles

	Ca                2.900e-03   2.900e-03
	Cl                2.100e-03   2.100e-03
	K                 6.000e-04   6.000e-04
	Mg                5.000e-04   5.000e-04
	N(-3)             4.000e-04   4.000e-04
	N(5)              2.000e-03   2.000e-03
	Na                9.000e-04   9.000e-04
	S(6)              1.100e-03   1.100e-03

----------------------------Description of solution----------------------------

                                       pH  =   7.000    
                                       pe  =   4.000    
      Specific Conductance (µS/cm,  25°C)  = 816
                          Density (g/cm³)  =   0.99746
                               Volume (L)  =   1.00303
                        Activity of water  =   1.000
                 Ionic strength (mol/kgw)  =   1.110e-02
                       Mass of water (kg)  =   1.000e+00
                 Total alkalinity (eq/kg)  =   2.017e-06
                         Temperature (°C)  =  25.00
                  Electrical balance (eq)  =   2.398e-03
 Percent error, 100*(Cat-|An|)/(Cat+|An|)  =  17.01
                               Iterations  =   4 (43 overall)
                                  Total H  = 1.110140e+02
                                  Total O  = 5.551662e+01

---------------------------------Redox couples---------------------------------

	Redox couple             pe  Eh (volts)

	N(-3)/N(5)           6.2228      0.3681

----------------------------Distribution of species----------------------------

                                               Log       Log       Log    mole V
   Species          Molality    Activity  Molality  Activity     Gamma    cm³/mol

   OH-             1.130e-07   1.012e-07    -6.947    -6.995    -0.048     -4.03
   H+              1.099e-07   1.000e-07    -6.959    -7.000    -0.041      0.00
   H2O             5.551e+01   9.998e-01     1.744    -0.000     0.000     18.07
Ca            2.900e-03
   Ca+2            2.719e-03   1.791e-03    -2.566    -2.747    -0.181    -17.91
   CaSO4           1.811e-04   1.816e-04    -3.742    -3.741     0.001      7.50
   CaOH+           3.310e-09   2.971e-09    -8.480    -8.527    -0.047     (0)  
   CaHSO4+         1.330e-10   1.194e-10    -9.876    -9.923    -0.047     (0)  
Cl            2.100e-03
   Cl-             2.100e-03   1.882e-03    -2.678    -2.725    -0.048     18.14
H(0)          1.412e-25
   H2              7.061e-26   7.079e-26   -25.151   -25.150     0.001     28.61
K             6.000e-04
   K+              5.976e-04   5.354e-04    -3.224    -3.271    -0.048      9.07
   KSO4-           2.381e-06   2.145e-06    -5.623    -5.669    -0.045     34.17
Mg            5.000e-04
   Mg+2            4.594e-04   3.047e-04    -3.338    -3.516    -0.178    -21.60
   MgSO4           4.063e-05   4.073e-05    -4.391    -4.390     0.001      5.84
   MgOH+           1.224e-08   1.106e-08    -7.912    -7.956    -0.044     (0)  
N(-3)         4.000e-04
   NH4+            3.951e-04   3.526e-04    -3.403    -3.453    -0.049     18.03
   NH4SO4-         2.886e-06   2.590e-06    -5.540    -5.587    -0.047     37.71
   NH3             2.004e-06   2.009e-06    -5.698    -5.697     0.001     24.42
N(5)          2.000e-03
   NO3-            2.000e-03   1.788e-03    -2.699    -2.748    -0.049     29.56
Na            9.000e-04
   Na+             8.974e-04   8.069e-04    -3.047    -3.093    -0.046     -1.37
   NaSO4-          2.560e-06   2.306e-06    -5.592    -5.637    -0.045     14.37
   NaOH            8.145e-21   8.166e-21   -20.089   -20.088     0.001     (0)  
O(0)          0.000e+00
   O2              0.000e+00   0.000e+00   -42.081   -42.080     0.001     30.40
S(6)          1.100e-03
   SO4-2           8.704e-04   5.703e-04    -3.060    -3.244    -0.184     14.79
   CaSO4           1.811e-04   1.816e-04    -3.742    -3.741     0.001      7.50
   MgSO4           4.063e-05   4.073e-05    -4.391    -4.390     0.001      5.84
   NH4SO4-         2.886e-06   2.590e-06    -5.540    -5.587    -0.047     37.71
   NaSO4-          2.560e-06   2.306e-06    -5.592    -5.637    -0.045     14.37
   KSO4-           2.381e-06   2.145e-06    -5.623    -5.669    -0.045     34.17
   HSO4-           6.177e-09   5.544e-09    -8.209    -8.256    -0.047     40.35
   CaHSO4+         1.330e-10   1.194e-10    -9.876    -9.923    -0.047     (0)  

------------------------------Saturation indices-------------------------------

  Phase               SI** log IAP   log K(298 K,   1 atm)

  Anhydrite        -1.71     -5.99   -4.28  CaSO4
  Gypsum           -1.41     -5.99   -4.58  CaSO4:2H2O
  H2(g)           -22.05    -25.15   -3.10  H2
  H2O(g)           -1.50     -0.00    1.50  H2O
  Halite           -7.39     -5.82    1.57  NaCl
  NH3(g)           -7.49     -5.70    1.80  NH3
  O2(g)           -39.19    -42.08   -2.89  O2
  Sylvite          -6.90     -6.00    0.90  KCl

**For a gas, SI = log10(fugacity). Fugacity = pressure * phi / 1 atm.
  For ideal gases, phi = 1.

Initial solution 12.	

-----------------------------Solution composition------------------------------

	Elements           Molality       Moles

	Ca                2.400e-03   2.400e-03
	Cl                9.000e-04   9.000e-04
	K                 5.000e-04   5.000e-04
	Mg                2.000e-04   2.000e-04
	N(-3)             7.000e-04   7.000e-04
	N(5)              4.000e-04   4.000e-04
	Na                5.000e-04   5.000e-04
	S(6)              2.300e-03   2.300e-03

----------------------------Description of solution----------------------------

                                       pH  =   7.000    
                                       pe  =   4.000    
      Specific Conductance (µS/cm,  25°C)  = 683
                          Density (g/cm³)  =   0.99743
                               Volume (L)  =   1.00300
                        Activity of water  =   1.000
                 Ionic strength (mol/kgw)  =   9.845e-03
                       Mass of water (kg)  =   1.000e+00
                 Total alkalinity (eq/kg)  =   3.494e-06
                         Temperature (°C)  =  25.00
                  Electrical balance (eq)  =   9.965e-04
 Percent error, 100*(Cat-|An|)/(Cat+|An|)  =   8.79
                               Iterations  =   4 (47 overall)
                                  Total H  = 1.110152e+02
                                  Total O  = 5.551662e+01

---------------------------------Redox couples---------------------------------

	Redox couple             pe  Eh (volts)

	N(-3)/N(5)           6.1055      0.3612

----------------------------Distribution of species----------------------------

                                               Log       Log       Log    mole V
   Species          Molality    Activity  Molality  Activity     Gamma    cm³/mol

   OH-             1.124e-07   1.012e-07    -6.949    -6.995    -0.045     -4.03
   H+              1.094e-07   1.000e-07    -6.961    -7.000    -0.039      0.00
   H2O             5.551e+01   9.999e-01     1.744    -0.000     0.000     18.07
Ca            2.400e-03
   Ca+2            2.080e-03   1.398e-03    -2.682    -2.854    -0.172    -17.93
   CaSO4           3.200e-04   3.207e-04    -3.495    -3.494     0.001      7.50
   CaOH+           2.571e-09   2.320e-09    -8.590    -8.634    -0.045     (0)  
   CaHSO4+         2.336e-10   2.108e-10    -9.632    -9.676    -0.045     (0)  
Cl            9.000e-04
   Cl-             9.000e-04   8.113e-04    -3.046    -3.091    -0.045     18.14
H(0)          1.413e-25
   H2              7.063e-26   7.079e-26   -25.151   -25.150     0.001     28.61
K             5.000e-04
   K+              4.955e-04   4.465e-04    -3.305    -3.350    -0.045      9.07
   KSO4-           4.467e-06   4.046e-06    -5.350    -5.393    -0.043     34.17
Mg            2.000e-04
   Mg+2            1.661e-04   1.124e-04    -3.780    -3.949    -0.170    -21.62
   MgSO4           3.390e-05   3.397e-05    -4.470    -4.469     0.001      5.84
   MgOH+           4.491e-09   4.080e-09    -8.348    -8.389    -0.042     (0)  
N(-3)         7.000e-04
   NH4+            6.852e-04   6.152e-04    -3.164    -3.211    -0.047     18.02
   NH4SO4-         1.132e-05   1.022e-05    -4.946    -4.991    -0.045     37.70
   NH3             3.498e-06   3.506e-06    -5.456    -5.455     0.001     24.42
N(5)          4.000e-04
   NO3-            4.000e-04   3.597e-04    -3.398    -3.444    -0.046     29.55
Na            5.000e-04
   Na+             4.968e-04   4.491e-04    -3.304    -3.348    -0.044     -1.38
   NaSO4-          3.205e-06   2.903e-06    -5.494    -5.537    -0.043     14.32
   NaOH            4.534e-21   4.545e-21   -20.343   -20.342     0.001     (0)  
O(0)          0.000e+00
   O2              0.000e+00   0.000e+00   -42.081   -42.080     0.001     30.40
S(6)          2.300e-03
   SO4-2           1.927e-03   1.290e-03    -2.715    -2.890    -0.174     14.77
   CaSO4           3.200e-04   3.207e-04    -3.495    -3.494     0.001      7.50
   MgSO4           3.390e-05   3.397e-05    -4.470    -4.469     0.001      5.84
   NH4SO4-         1.132e-05   1.022e-05    -4.946    -4.991    -0.045     37.70
   KSO4-           4.467e-06   4.046e-06    -5.350    -5.393    -0.043     34.17
   NaSO4-          3.205e-06   2.903e-06    -5.494    -5.537    -0.043     14.32
   HSO4-           1.389e-08   1.254e-08    -7.857    -7.902    -0.045     40.34
   CaHSO4+         2.336e-10   2.108e-10    -9.632    -9.676    -0.045     (0)  

------------------------------Saturation indices-------------------------------

  Phase               SI** log IAP   log K(298 K,   1 atm)

  Anhydrite        -1.47     -5.74   -4.28  CaSO4
  Gypsum           -1.16     -5.74   -4.58  CaSO4:2H2O
  H2(g)           -22.05    -25.15   -3.10  H2
  H2O(g)           -1.50     -0.00    1.50  H2O
  Halite           -8.01     -6.44    1.57  NaCl
  NH3(g)           -7.25     -5.46    1.80  NH3
  O2(g)           -39.19    -42.08   -2.89  O2
  Sylvite          -7.34     -6.44    0.90  KCl

**For a gas, SI = log10(fugacity). Fugacity = pressure * phi / 1 atm.
  For ideal gases, phi = 1.

Initial solution 13.	

-----------------------------Solution composition------------------------------

	Elements           Molality       Moles

	Ca                2.700e-03   2.700e-03
	Cl                7.000e-04   7.000e-04
	K                 2.000e-04   2.000e-04
	Mg                6.000e-04   6.000e-04
	N(-3)             8.000e-04   8.000e-04
	N(5)              9.000e-04   9.000e-04
	Na                1.100e-03   1.100e-03
	S(6)              1.200e-03   1.200e-03

----------------------------Description of solution----------------------------

                                       pH  =   7.000    
                                       pe  =   4.000    
      Specific Conductance (µS/cm,  25°C)  = 656
                          Density (g/cm³)  =   0.99740
                               Volume (L)  =   1.00298
                        Activity of water  =   1.000
                 Ionic strength (mol/kgw)  =   9.851e-03
                       Mass of water (kg)  =   1.000e+00
                 Total alkalinity (eq/kg)  =   4.045e-06
                         Temperature (°C)  =  25.00
                  Electrical balance (eq)  =   4.696e-03
 Percent error, 100*(Cat-|An|)/(Cat+|An|)  =  40.14
                               Iterations  =   4 (51 overall)
                                  Total H  = 1.110156e+02
                                  Total O  = 5.551372e+01

---------------------------------Redox couples---------------------------------

	Redox couple             pe  Eh (volts)

	N(-3)/N(5)           6.1418      0.3633

----------------------------Distribution of species----------------------------

                                               Log       Log       Log    mole V
   Species          Molality    Activity  Molality  Activity     Gamma    cm³/mol

   OH-             1.124e-07   1.012e-07    -6.949    -6.995    -0.045     -4.03
   H+              1.094e-07   1.000e-07    -6.961    -7.000    -0.039      0.00
   H2O             5.551e+01   9.999e-01     1.744    -0.000     0.000     18.07
Ca            2.700e-03
   Ca+2            2.511e-03   1.688e-03    -2.600    -2.773    -0.172    -17.93
   CaSO4           1.894e-04   1.898e-04    -3.723    -3.722     0.001      7.50
   CaOH+           3.103e-09   2.801e-09    -8.508    -8.553    -0.045     (0)  
   CaHSO4+         1.383e-10   1.248e-10    -9.859    -9.904    -0.045     (0)  
Cl            7.000e-04
   Cl-             7.000e-04   6.310e-04    -3.155    -3.200    -0.045     18.14
H(0)          1.413e-25
   H2              7.063e-26   7.079e-26   -25.151   -25.150     0.001     28.61
K             2.000e-04
   K+              1.991e-04   1.794e-04    -3.701    -3.746    -0.045      9.07
   KSO4-           8.804e-07   7.973e-07    -6.055    -6.098    -0.043     34.17
Mg            6.000e-04
   Mg+2            5.454e-04   3.690e-04    -3.263    -3.433    -0.170    -21.62
   MgSO4           5.458e-05   5.471e-05    -4.263    -4.262     0.001      5.84
   MgOH+           1.475e-08   1.339e-08    -7.831    -7.873    -0.042     (0)  
N(-3)         8.000e-04
   NH4+            7.896e-04   7.089e-04    -3.103    -3.149    -0.047     18.02
   NH4SO4-         6.400e-06   5.776e-06    -5.194    -5.238    -0.045     37.70
   NH3             4.031e-06   4.040e-06    -5.395    -5.394     0.001     24.42
N(5)          9.000e-04
   NO3-            9.000e-04   8.093e-04    -3.046    -3.092    -0.046     29.55
Na            1.100e-03
   Na+             1.097e-03   9.912e-04    -2.960    -3.004    -0.044     -1.38
   NaSO4-          3.469e-06   3.142e-06    -5.460    -5.503    -0.043     14.32
   NaOH            1.001e-20   1.003e-20   -20.000   -19.999     0.001     (0)  
O(0)          0.000e+00
   O2              0.000e+00   0.000e+00   -42.081   -42.080     0.001     30.40
S(6)          1.200e-03
   SO4-2           9.453e-04   6.325e-04    -3.024    -3.199    -0.174     14.77
   CaSO4           1.894e-04   1.898e-04    -3.723    -3.722     0.001      7.50
   MgSO4           5.458e-05   5.471e-05    -4.263    -4.262     0.001      5.84
   NH4SO4-         6.400e-06   5.776e-06    -5.194    -5.238    -0.045     37.70
   NaSO4-          3.469e-06   3.142e-06    -5.460    -5.503    -0.043     14.32
   KSO4-           8.804e-07   7.973e-07    -6.055    -6.098    -0.043     34.17
   HSO4-           6.814e-09   6.149e-09    -8.167    -8.211    -0.045     40.34
   CaHSO4+         1.383e-10   1.248e-10    -9.859    -9.904    -0.045     (0)  

------------------------------Saturation indices-------------------------------

  Phase               SI** log IAP   log K(298 K,   1 atm)

  Anhydrite        -1.69     -5.97   -4.28  CaSO4
  Gypsum           -1.39     -5.97   -4.58  CaSO4:2H2O
  H2(g)           -22.05    -25.15   -3.10  H2
  H2O(g)           -1.50     -0.00    1.50  H2O
  Halite           -7.77     -6.20    1.57  NaCl
  NH3(g)           -7.19     -5.39    1.80  NH3
  O2(g)           -39.19    -42.08   -2.89  O2
  Sylvite          -7.85     -6.95    0.90  KCl

**For a gas, SI = log10(fugacity). Fugacity = pressure * phi / 1 atm.
  For ideal gases, phi = 1.

Initial solution 14.	

-----------------------------Solution composition------------------------------

	Elements           Molality       Moles

	Ca                1.000e-03   1.000e-03
	Cl                1.100e-03   1.100e-03
	K                 1.000e-04   1.000e-04
	Mg                6.000e-04   6.000e-04
	N(-3)             7.000e-04   7.000e-04
	N(5)              6.000e-04   6.000e-04
	Na                3.000e-04   3.000e-04
	S(6)              8.000e-04   8.000e-04

----------------------------Description of solution----------------------------

                                       pH  =   7.000    
                                       pe  =   4.000    
      Specific Conductance (µS/cm,  25°C)  = 434
                          Density (g/cm³)  =   0.99724
                               Volume (L)  =   1.00300
                        Activity of water  =   1.000
                 Ionic strength (mol/kgw)  =   5.754e-03
                       Mass of water (kg)  =   1.000e+00
                 Total alkalinity (eq/kg)  =   3.635e-06
                         Temperature (°C)  =  25.00
                  Electrical balance (eq)  =   9.964e-04
 Percent error, 100*(Cat-|An|)/(Cat+|An|)  =  13.93
                               Iterations  =   3 (54 overall)
                                  Total H  = 1.110152e+02
                                  Total O  = 5.551122e+01

---------------------------------Redox couples---------------------------------

	Redox couple             pe  Eh (volts)

	N(-3)/N(5)           6.1270      0.3624

----------------------------Distribution of species----------------------------

                                               Log       Log       Log    mole V
   Species          Molality    Activity  Molality  Activity     Gamma    cm³/mol

   OH-             1.098e-07   1.012e-07    -6.959    -6.995    -0.036     -4.06
   H+              1.075e-07   1.000e-07    -6.968    -7.000    -0.032      0.00
   H2O             5.551e+01   9.999e-01     1.744    -0.000     0.000     18.07
Ca            1.000e-03
   Ca+2            9.392e-04   6.856e-04    -3.027    -3.164    -0.137    -18.00
   CaSO4           6.083e-05   6.091e-05    -4.216    -4.215     0.001      7.50
   CaOH+           1.233e-09   1.138e-09    -8.909    -8.944    -0.035     (0)  
   CaHSO4+         4.341e-11   4.004e-11   -10.362   -10.398    -0.035     (0)  
Cl            1.100e-03
   Cl-             1.100e-03   1.014e-03    -2.959    -2.994    -0.035     18.12
H(0)          1.414e-25
   H2              7.070e-26   7.079e-26   -25.151   -25.150     0.001     28.61
K             1.000e-04
   K+              9.965e-05   9.183e-05    -4.002    -4.037    -0.035      9.05
   KSO4-           3.487e-07   3.224e-07    -6.458    -6.492    -0.034     34.15
Mg            6.000e-04
   Mg+2            5.526e-04   4.050e-04    -3.258    -3.393    -0.135    -21.68
   MgSO4           4.737e-05   4.744e-05    -4.324    -4.324     0.001      5.84
   MgOH+           1.588e-08   1.470e-08    -7.799    -7.833    -0.033     (0)  
N(-3)         7.000e-04
   NH4+            6.919e-04   6.363e-04    -3.160    -3.196    -0.036     18.00
   NH4SO4-         4.440e-06   4.095e-06    -5.353    -5.388    -0.035     37.67
   NH3             3.621e-06   3.626e-06    -5.441    -5.441     0.001     24.42
N(5)          6.000e-04
   NO3-            6.000e-04   5.523e-04    -3.222    -3.258    -0.036     29.53
Na            3.000e-04
   Na+             2.993e-04   2.763e-04    -3.524    -3.559    -0.035     -1.41
   NaSO4-          7.484e-07   6.919e-07    -6.126    -6.160    -0.034     14.11
   NaOH            2.793e-21   2.796e-21   -20.554   -20.553     0.001     (0)  
O(0)          0.000e+00
   O2              0.000e+00   0.000e+00   -42.081   -42.080     0.001     30.40
S(6)          8.000e-04
   SO4-2           6.863e-04   4.996e-04    -3.164    -3.301    -0.138     14.68
   CaSO4           6.083e-05   6.091e-05    -4.216    -4.215     0.001      7.50
   MgSO4           4.737e-05   4.744e-05    -4.324    -4.324     0.001      5.84
   NH4SO4-         4.440e-06   4.095e-06    -5.353    -5.388    -0.035     37.67
   NaSO4-          7.484e-07   6.919e-07    -6.126    -6.160    -0.034     14.11
   KSO4-           3.487e-07   3.224e-07    -6.458    -6.492    -0.034     34.15
   HSO4-           5.266e-09   4.858e-09    -8.279    -8.314    -0.035     40.32
   CaHSO4+         4.341e-11   4.004e-11   -10.362   -10.398    -0.035     (0)  

------------------------------Saturation indices-------------------------------

  Phase               SI** log IAP   log K(298 K,   1 atm)

  Anhydrite        -2.19     -6.47   -4.28  CaSO4
  Gypsum           -1.88     -6.47   -4.58  CaSO4:2H2O
  H2(g)           -22.05    -25.15   -3.10  H2
  H2O(g)           -1.50     -0.00    1.50  H2O
  Halite           -8.12     -6.55    1.57  NaCl
  NH3(g)           -7.24     -5.44    1.80  NH3
  O2(g)           -39.19    -42.08   -2.89  O2
  Sylvite          -7.93     -7.03    0.90  KCl

**For a gas, SI = log10(fugacity). Fugacity = pressure * phi / 1 atm.
  For ideal gases, phi = 1.

Initial solution 15.	

-----------------------------Solution composition------------------------------

	Elements           Molality       Moles

	Ca                1.300e-03   1.300e-03
	Cl                1.200e-03   1.200e-03
	K                 2.000e-04   2.000e-04
	Mg                5.000e-04   5.000e-04
	N(-3)             4.000e-04   4.000e-04
	N(5)              1.200e-03   1.200e-03
	Na                6.000e-04   6.000e-04
	S(6)              9.000e-04   9.000e-04

----------------------------Description of solution----------------------------

                                       pH  =   7.000    
                                       pe  =   4.000    
      Specific Conductance (µS/cm,  25°C)  = 509
                          Density (g/cm³)  =   0.99729
                               Volume (L)  =   1.00301
                        Activity of water  =   1.000
                 Ionic strength (mol/kgw)  =   6.683e-03
                       Mass of water (kg)  =   1.000e+00
                 Total alkalinity (eq/kg)  =   2.066e-06
                         Temperature (°C)  =  25.00
                  Electrical balance (eq)  =   5.979e-04
 Percent error, 100*(Cat-|An|)/(Cat+|An|)  =   7.05
                               Iterations  =   3 (57 overall)
                                  Total H  = 1.110140e+02
                                  Total O  = 5.551342e+01

---------------------------------Redox couples---------------------------------

	Redox couple             pe  Eh (volts)

	N(-3)/N(5)           6.1950      0.3665

----------------------------Distribution of species----------------------------

                                               Log       Log       Log    mole V
   Species          Molality    Activity  Molality  Activity     Gamma    cm³/mol

   OH-             1.105e-07   1.012e-07    -6.957    -6.995    -0.038     -4.05
   H+              1.080e-07   1.000e-07    -6.966    -7.000    -0.034      0.00
   H2O             5.551e+01   9.999e-01     1.744    -0.000     0.000     18.07
Ca            1.300e-03
   Ca+2            1.216e-03   8.687e-04    -2.915    -3.061    -0.146    -17.98
   CaSO4           8.441e-05   8.454e-05    -4.074    -4.073     0.001      7.50
   CaOH+           1.572e-09   1.441e-09    -8.804    -8.841    -0.038     (0)  
   CaHSO4+         6.059e-11   5.557e-11   -10.218   -10.255    -0.038     (0)  
Cl            1.200e-03
   Cl-             1.200e-03   1.100e-03    -2.921    -2.959    -0.038     18.12
H(0)          1.414e-25
   H2              7.069e-26   7.079e-26   -25.151   -25.150     0.001     28.61
K             2.000e-04
   K+              1.992e-04   1.825e-04    -3.701    -3.739    -0.038      9.05
   KSO4-           7.634e-07   7.020e-07    -6.117    -6.154    -0.036     34.15
Mg            5.000e-04
   Mg+2            4.579e-04   3.287e-04    -3.339    -3.483    -0.144    -21.67
   MgSO4           4.211e-05   4.217e-05    -4.376    -4.375     0.001      5.84
   MgOH+           1.295e-08   1.193e-08    -7.888    -7.923    -0.035     (0)  
N(-3)         4.000e-04
   NH4+            3.952e-04   3.612e-04    -3.403    -3.442    -0.039     18.01
   NH4SO4-         2.776e-06   2.546e-06    -5.557    -5.594    -0.038     37.67
   NH3             2.055e-06   2.058e-06    -5.687    -5.687     0.001     24.42
N(5)          1.200e-03
   NO3-            1.200e-03   1.098e-03    -2.921    -2.959    -0.039     29.54
Na            6.000e-04
[...]
                  Electrical balance (eq)  =   5.995e-04
 Percent error, 100*(Cat-|An|)/(Cat+|An|)  =   2.50
                               Iterations  =   3 (201 overall)
                                  Total H  = 1.110128e+02
                                  Total O  = 5.551482e+01

---------------------------------Redox couples---------------------------------

	Redox couple             pe  Eh (volts)

	N(-3)/N(5)           6.2329      0.3687

----------------------------Distribution of species----------------------------

                                               Log       Log       Log    mole V
   Species          Molality    Activity  Molality  Activity     Gamma    cm³/mol

   OH-             1.155e-07   1.012e-07    -6.937    -6.995    -0.058     -4.00
   H+              1.116e-07   1.000e-07    -6.952    -7.000    -0.048      0.00
   H2O             5.551e+01   9.997e-01     1.744    -0.000     0.000     18.07
Ca            2.700e-03
   Ca+2            2.482e-03   1.512e-03    -2.605    -2.820    -0.215    -17.85
   CaSO4           2.176e-04   2.184e-04    -3.662    -3.661     0.002      7.50
   CaOH+           2.853e-09   2.508e-09    -8.545    -8.601    -0.056     (0)  
   CaHSO4+         1.633e-10   1.436e-10    -9.787    -9.843    -0.056     (0)  
Cl            8.400e-03
   Cl-             8.400e-03   7.367e-03    -2.076    -2.133    -0.057     18.17
H(0)          1.410e-25
   H2              7.052e-26   7.079e-26   -25.152   -25.150     0.002     28.61
K             2.000e-04
   K+              1.989e-04   1.743e-04    -3.701    -3.759    -0.057      9.09
   KSO4-           1.126e-06   9.949e-07    -5.948    -6.002    -0.054     34.20
Mg            1.100e-03
   Mg+2            9.850e-04   6.059e-04    -3.007    -3.218    -0.211    -21.53
   MgSO4           1.150e-04   1.154e-04    -3.939    -3.938     0.002      5.84
   MgOH+           2.478e-08   2.199e-08    -7.606    -7.658    -0.052     (0)  
N(-3)         1.000e-04
   NH4+            9.849e-05   8.582e-05    -4.007    -4.066    -0.060     18.04
   NH4SO4-         1.022e-06   8.983e-07    -5.991    -6.047    -0.056     37.74
   NH3             4.872e-07   4.891e-07    -6.312    -6.311     0.002     24.42
N(5)          6.000e-04
   NO3-            6.000e-04   5.242e-04    -3.222    -3.281    -0.059     29.58
Na            5.100e-03
   Na+             5.079e-03   4.475e-03    -2.294    -2.349    -0.055     -1.34
   NaSO4-          2.063e-05   1.822e-05    -4.686    -4.739    -0.054     14.59
   NaOH            4.511e-20   4.528e-20   -19.346   -19.344     0.002     (0)  
O(0)          0.000e+00
   O2              0.000e+00   0.000e+00   -42.082   -42.080     0.002     30.40
S(6)          1.700e-03
   SO4-2           1.345e-03   8.125e-04    -2.871    -3.090    -0.219     14.88
   CaSO4           2.176e-04   2.184e-04    -3.662    -3.661     0.002      7.50
   MgSO4           1.150e-04   1.154e-04    -3.939    -3.938     0.002      5.84
   NaSO4-          2.063e-05   1.822e-05    -4.686    -4.739    -0.054     14.59
   KSO4-           1.126e-06   9.949e-07    -5.948    -6.002    -0.054     34.20
   NH4SO4-         1.022e-06   8.983e-07    -5.991    -6.047    -0.056     37.74
   HSO4-           8.986e-09   7.899e-09    -8.046    -8.102    -0.056     40.37
   CaHSO4+         1.633e-10   1.436e-10    -9.787    -9.843    -0.056     (0)  

------------------------------Saturation indices-------------------------------

  Phase               SI** log IAP   log K(298 K,   1 atm)

  Anhydrite        -1.63     -5.91   -4.28  CaSO4
  Gypsum           -1.33     -5.91   -4.58  CaSO4:2H2O
  H2(g)           -22.05    -25.15   -3.10  H2
  H2O(g)           -1.50     -0.00    1.50  H2O
  Halite           -6.05     -4.48    1.57  NaCl
  NH3(g)           -8.11     -6.31    1.80  NH3
  O2(g)           -39.19    -42.08   -2.89  O2
  Sylvite          -6.79     -5.89    0.90  KCl

**For a gas, SI = log10(fugacity). Fugacity = pressure * phi / 1 atm.
  For ideal gases, phi = 1.

Initial solution 55.	

-----------------------------Solution composition------------------------------

	Elements           Molality       Moles

	Ca                6.600e-03   6.600e-03
	Cl                9.700e-03   9.700e-03
	K                 4.000e-04   4.000e-04
	Mg                3.000e-03   3.000e-03
	N(-3)             9.000e-04   9.000e-04
	N(5)              1.100e-03   1.100e-03
	Na                5.100e-03   5.100e-03
	S(6)              8.400e-03   8.400e-03

----------------------------Description of solution----------------------------

                                       pH  =   7.000    
                                       pe  =   4.000    
      Specific Conductance (µS/cm,  25°C)  = 2463
                          Density (g/cm³)  =   0.99855
                               Volume (L)  =   1.00316
                        Activity of water  =   0.999
                 Ionic strength (mol/kgw)  =   3.534e-02
                       Mass of water (kg)  =   1.000e+00
                 Total alkalinity (eq/kg)  =   4.051e-06
                         Temperature (°C)  =  25.00
                  Electrical balance (eq)  =  -2.004e-03
 Percent error, 100*(Cat-|An|)/(Cat+|An|)  =  -4.56
                               Iterations  =   4 (205 overall)
                                  Total H  = 1.110160e+02
                                  Total O  = 5.554312e+01

---------------------------------Redox couples---------------------------------

	Redox couple             pe  Eh (volts)

	N(-3)/N(5)           6.1482      0.3637

----------------------------Distribution of species----------------------------

                                               Log       Log       Log    mole V
   Species          Molality    Activity  Molality  Activity     Gamma    cm³/mol

   OH-             1.213e-07   1.012e-07    -6.916    -6.995    -0.079     -3.92
   H+              1.152e-07   1.000e-07    -6.938    -7.000    -0.062      0.00
   H2O             5.551e+01   9.994e-01     1.744    -0.000     0.000     18.07
Ca            6.600e-03
   Ca+2            5.162e-03   2.664e-03    -2.287    -2.574    -0.287    -17.70
   CaSO4           1.438e-03   1.450e-03    -2.842    -2.839     0.004      7.50
   CaOH+           5.256e-09   4.419e-09    -8.279    -8.355    -0.075     (0)  
   CaHSO4+         1.133e-09   9.529e-10    -8.946    -9.021    -0.075     (0)  
Cl            9.700e-03
   Cl-             9.700e-03   8.110e-03    -2.013    -2.091    -0.078     18.22
H(0)          1.404e-25
   H2              7.022e-26   7.079e-26   -25.154   -25.150     0.004     28.61
K             4.000e-04
   K+              3.917e-04   3.271e-04    -3.407    -3.485    -0.078      9.14
   KSO4-           8.297e-06   7.031e-06    -5.081    -5.153    -0.072     34.25
Mg            3.000e-03
   Mg+2            2.183e-03   1.148e-03    -2.661    -2.940    -0.279    -21.39
   MgSO4           8.166e-04   8.233e-04    -3.088    -3.084     0.004      5.84
   MgOH+           4.876e-08   4.165e-08    -7.312    -7.380    -0.068     (0)  
N(-3)         9.000e-04
   NH4+            8.626e-04   7.124e-04    -3.064    -3.147    -0.083     18.09
   NH4SO4-         3.340e-05   2.808e-05    -4.476    -4.552    -0.075     37.84
   NH3             4.027e-06   4.060e-06    -5.395    -5.391     0.004     24.42
N(5)          1.100e-03
   NO3-            1.100e-03   9.131e-04    -2.959    -3.040    -0.081     29.64
Na            5.100e-03
   Na+             5.023e-03   4.239e-03    -2.299    -2.373    -0.074     -1.26
   NaSO4-          7.671e-05   6.500e-05    -4.115    -4.187    -0.072     15.12
   NaOH            4.254e-20   4.289e-20   -19.371   -19.368     0.004     (0)  
O(0)          0.000e+00
   O2              0.000e+00   0.000e+00   -42.084   -42.080     0.004     30.40
S(6)          8.400e-03
   SO4-2           6.027e-03   3.059e-03    -2.220    -2.514    -0.294     15.10
   CaSO4           1.438e-03   1.450e-03    -2.842    -2.839     0.004      7.50
   MgSO4           8.166e-04   8.233e-04    -3.088    -3.084     0.004      5.84
   NaSO4-          7.671e-05   6.500e-05    -4.115    -4.187    -0.072     15.12
   NH4SO4-         3.340e-05   2.808e-05    -4.476    -4.552    -0.075     37.84
   KSO4-           8.297e-06   7.031e-06    -5.081    -5.153    -0.072     34.25
   HSO4-           3.538e-08   2.975e-08    -7.451    -7.527    -0.075     40.42
   CaHSO4+         1.133e-09   9.529e-10    -8.946    -9.021    -0.075     (0)  

------------------------------Saturation indices-------------------------------

  Phase               SI** log IAP   log K(298 K,   1 atm)

  Anhydrite        -0.81     -5.09   -4.28  CaSO4
  Gypsum           -0.51     -5.09   -4.58  CaSO4:2H2O
  H2(g)           -22.05    -25.15   -3.10  H2
  H2O(g)           -1.50     -0.00    1.50  H2O
  Halite           -6.03     -4.46    1.57  NaCl
  NH3(g)           -7.19     -5.39    1.80  NH3
  O2(g)           -39.19    -42.08   -2.89  O2
  Sylvite          -6.48     -5.58    0.90  KCl

**For a gas, SI = log10(fugacity). Fugacity = pressure * phi / 1 atm.
  For ideal gases, phi = 1.

Initial solution 56.	

-----------------------------Solution composition------------------------------

	Elements           Molality       Moles

	Ca                6.000e-04   6.000e-04
	Cl                5.000e-04   5.000e-04
	K                 1.000e-04   1.000e-04
	Mg                1.000e-04   1.000e-04
	N(-3)             1.000e-04   1.000e-04
	N(5)              6.000e-04   6.000e-04
	Na                3.000e-04   3.000e-04
	S(6)              1.000e-03   1.000e-03

----------------------------Description of solution----------------------------

                                       pH  =   7.000    
                                       pe  =   4.000    
      Specific Conductance (µS/cm,  25°C)  = 305
                          Density (g/cm³)  =   0.99720
                               Volume (L)  =   1.00300
                        Activity of water  =   1.000
                 Ionic strength (mol/kgw)  =   3.937e-03
                       Mass of water (kg)  =   1.000e+00
                 Total alkalinity (eq/kg)  =   5.212e-07
                         Temperature (°C)  =  25.00
                  Electrical balance (eq)  =  -1.201e-03
 Percent error, 100*(Cat-|An|)/(Cat+|An|)  = -25.35
                               Iterations  =   4 (209 overall)
                                  Total H  = 1.110128e+02
                                  Total O  = 5.551202e+01

---------------------------------Redox couples---------------------------------

	Redox couple             pe  Eh (volts)

	N(-3)/N(5)           6.2327      0.3687

----------------------------Distribution of species----------------------------

                                               Log       Log       Log    mole V
   Species          Molality    Activity  Molality  Activity     Gamma    cm³/mol

   OH-             1.084e-07   1.012e-07    -6.965    -6.995    -0.030     -4.07
   H+              1.064e-07   1.000e-07    -6.973    -7.000    -0.027      0.00
   H2O             5.551e+01   9.999e-01     1.744    -0.000     0.000     18.07
Ca            6.000e-04
   Ca+2            5.468e-04   4.192e-04    -3.262    -3.378    -0.115    -18.04
   CaSO4           5.318e-05   5.322e-05    -4.274    -4.274     0.000      7.50
   CaOH+           7.446e-10   6.957e-10    -9.128    -9.158    -0.030     (0)  
   CaHSO4+         3.745e-11   3.499e-11   -10.427   -10.456    -0.030     (0)  
Cl            5.000e-04
   Cl-             5.000e-04   4.669e-04    -3.301    -3.331    -0.030     18.10
H(0)          1.415e-25
   H2              7.073e-26   7.079e-26   -25.150   -25.150     0.000     28.61
K             1.000e-04
   K+              9.950e-05   9.291e-05    -4.002    -4.032    -0.030      9.04
   KSO4-           4.980e-07   4.661e-07    -6.303    -6.332    -0.029     34.13
Mg            1.000e-04
   Mg+2            8.861e-05   6.812e-05    -4.053    -4.167    -0.114    -21.72
   MgSO4           1.139e-05   1.140e-05    -4.943    -4.943     0.000      5.84
   MgOH+           2.639e-09   2.473e-09    -8.579    -8.607    -0.028     (0)  
N(-3)         1.000e-04
   NH4+            9.857e-05   9.190e-05    -4.006    -4.037    -0.030     17.99
   NH4SO4-         9.047e-07   8.452e-07    -6.044    -6.073    -0.030     37.65
   NH3             5.232e-07   5.237e-07    -6.281    -6.281     0.000     24.42
N(5)          6.000e-04
   NO3-            6.000e-04   5.598e-04    -3.222    -3.252    -0.030     29.52
Na            3.000e-04
   Na+             2.989e-04   2.795e-04    -3.524    -3.554    -0.029     -1.43
   NaSO4-          1.069e-06   1.000e-06    -5.971    -6.000    -0.029     14.00
   NaOH            2.826e-21   2.829e-21   -20.549   -20.548     0.000     (0)  
O(0)          0.000e+00
   O2              0.000e+00   0.000e+00   -42.080   -42.080     0.000     30.40
S(6)          1.000e-03
   SO4-2           9.330e-04   7.139e-04    -3.030    -3.146    -0.116     14.63
   CaSO4           5.318e-05   5.322e-05    -4.274    -4.274     0.000      7.50
   MgSO4           1.139e-05   1.140e-05    -4.943    -4.943     0.000      5.84
   NaSO4-          1.069e-06   1.000e-06    -5.971    -6.000    -0.029     14.00
   NH4SO4-         9.047e-07   8.452e-07    -6.044    -6.073    -0.030     37.65
   KSO4-           4.980e-07   4.661e-07    -6.303    -6.332    -0.029     34.13
   HSO4-           7.429e-09   6.941e-09    -8.129    -8.159    -0.030     40.31
   CaHSO4+         3.745e-11   3.499e-11   -10.427   -10.456    -0.030     (0)  

------------------------------Saturation indices-------------------------------

  Phase               SI** log IAP   log K(298 K,   1 atm)

  Anhydrite        -2.25     -6.52   -4.28  CaSO4
  Gypsum           -1.94     -6.52   -4.58  CaSO4:2H2O
  H2(g)           -22.05    -25.15   -3.10  H2
  H2O(g)           -1.50     -0.00    1.50  H2O
  Halite           -8.45     -6.88    1.57  NaCl
  NH3(g)           -8.08     -6.28    1.80  NH3
  O2(g)           -39.19    -42.08   -2.89  O2
  Sylvite          -8.26     -7.36    0.90  KCl

**For a gas, SI = log10(fugacity). Fugacity = pressure * phi / 1 atm.
  For ideal gases, phi = 1.

Initial solution 57.	

-----------------------------Solution composition------------------------------

	Elements           Molality       Moles

	Ca                9.000e-04   9.000e-04
	Cl                3.900e-03   3.900e-03
	K                 2.000e-04   2.000e-04
	Mg                3.000e-04   3.000e-04
	N(-3)             2.000e-04   2.000e-04
	N(5)              7.000e-04   7.000e-04
	Na                2.000e-03   2.000e-03
	S(6)              1.100e-03   1.100e-03

----------------------------Description of solution----------------------------

                                       pH  =   7.000    
                                       pe  =   4.000    
      Specific Conductance (µS/cm,  25°C)  = 694
                          Density (g/cm³)  =   0.99734
                               Volume (L)  =   1.00305
                        Activity of water  =   1.000
                 Ionic strength (mol/kgw)  =   7.674e-03
                       Mass of water (kg)  =   1.000e+00
                 Total alkalinity (eq/kg)  =   1.023e-06
                         Temperature (°C)  =  25.00
                  Electrical balance (eq)  =  -2.001e-03
 Percent error, 100*(Cat-|An|)/(Cat+|An|)  = -17.91
                               Iterations  =   3 (212 overall)
                                  Total H  = 1.110132e+02
                                  Total O  = 5.551272e+01

---------------------------------Redox couples---------------------------------

	Redox couple             pe  Eh (volts)

	N(-3)/N(5)           6.2035      0.3670

----------------------------Distribution of species----------------------------

                                               Log       Log       Log    mole V
   Species          Molality    Activity  Molality  Activity     Gamma    cm³/mol

   OH-             1.111e-07   1.012e-07    -6.954    -6.995    -0.041     -4.05
   H+              1.085e-07   1.000e-07    -6.965    -7.000    -0.035      0.00
   H2O             5.551e+01   9.998e-01     1.744    -0.000     0.000     18.07
Ca            9.000e-04
   Ca+2            8.290e-04   5.802e-04    -3.081    -3.236    -0.155    -17.96
   CaSO4           7.102e-05   7.114e-05    -4.149    -4.148     0.001      7.50
   CaOH+           1.055e-09   9.627e-10    -8.977    -9.016    -0.040     (0)  
   CaHSO4+         5.127e-11   4.676e-11   -10.290   -10.330    -0.040     (0)  
Cl            3.900e-03
   Cl-             3.900e-03   3.554e-03    -2.409    -2.449    -0.040     18.13
H(0)          1.413e-25
   H2              7.067e-26   7.079e-26   -25.151   -25.150     0.001     28.61
K             2.000e-04
   K+              1.990e-04   1.813e-04    -3.701    -3.742    -0.040      9.06
   KSO4-           9.604e-07   8.786e-07    -6.018    -6.056    -0.039     34.16
Mg            3.000e-04
   Mg+2            2.694e-04   1.895e-04    -3.570    -3.722    -0.153    -21.65
   MgSO4           3.058e-05   3.064e-05    -4.515    -4.514     0.001      5.84
   MgOH+           7.503e-09   6.880e-09    -8.125    -8.162    -0.038     (0)  
N(-3)         2.000e-04
   NH4+            1.972e-04   1.792e-04    -3.705    -3.747    -0.042     18.01
   NH4SO4-         1.745e-06   1.592e-06    -5.758    -5.798    -0.040     37.68
   NH3             1.019e-06   1.021e-06    -5.992    -5.991     0.001     24.42
N(5)          7.000e-04
   NO3-            7.000e-04   6.368e-04    -3.155    -3.196    -0.041     29.54
Na            2.000e-03
   Na+             1.993e-03   1.820e-03    -2.700    -2.740    -0.039     -1.40
   NaSO4-          6.877e-06   6.291e-06    -5.163    -5.201    -0.039     14.22
   NaOH            1.839e-20   1.842e-20   -19.735   -19.735     0.001     (0)  
O(0)          0.000e+00
   O2              0.000e+00   0.000e+00   -42.081   -42.080     0.001     30.40
S(6)          1.100e-03
   SO4-2           9.888e-04   6.896e-04    -3.005    -3.161    -0.157     14.72
   CaSO4           7.102e-05   7.114e-05    -4.149    -4.148     0.001      7.50
   MgSO4           3.058e-05   3.064e-05    -4.515    -4.514     0.001      5.84
   NaSO4-          6.877e-06   6.291e-06    -5.163    -5.201    -0.039     14.22
   NH4SO4-         1.745e-06   1.592e-06    -5.758    -5.798    -0.040     37.68
   KSO4-           9.604e-07   8.786e-07    -6.018    -6.056    -0.039     34.16
   HSO4-           7.349e-09   6.704e-09    -8.134    -8.174    -0.040     40.33
   CaHSO4+         5.127e-11   4.676e-11   -10.290   -10.330    -0.040     (0)  

------------------------------Saturation indices-------------------------------

  Phase               SI** log IAP   log K(298 K,   1 atm)

  Anhydrite        -2.12     -6.40   -4.28  CaSO4
  Gypsum           -1.82     -6.40   -4.58  CaSO4:2H2O
  H2(g)           -22.05    -25.15   -3.10  H2
  H2O(g)           -1.50     -0.00    1.50  H2O
  Halite           -6.76     -5.19    1.57  NaCl
  NH3(g)           -7.79     -5.99    1.80  NH3
  O2(g)           -39.19    -42.08   -2.89  O2
  Sylvite          -7.09     -6.19    0.90  KCl

**For a gas, SI = log10(fugacity). Fugacity = pressure * phi / 1 atm.
  For ideal gases, phi = 1.

------------------
End of simulation.
------------------

------------------------------------
Reading input data for simulation 2.
------------------------------------

-------------------------------
End of Run after 0.134 Seconds.
-------------------------------

